*SPEF "ieee 1481-1999"
*DESIGN "asmd_multiplier"
*DATE "11:11:11 Fri 11 11, 1111"
*VENDOR "OpenRCX"
*PROGRAM "Parallel Extraction"
*VERSION "1.0"
*DESIGN_FLOW "NAME_SCOPE LOCAL" "PIN_CAP NONE"
*DIVIDER /
*DELIMITER :
*BUS_DELIMITER []
*T_UNIT 1 NS
*C_UNIT 1 PF
*R_UNIT 1 OHM
*L_UNIT 1 HENRY

*NAME_MAP
*3 clk
*4 product[0]
*5 product[1]
*6 product[2]
*7 product[3]
*8 product[4]
*9 product[5]
*10 product[6]
*11 product[7]
*12 ready
*13 reset
*14 start
*15 word0[0]
*16 word0[1]
*17 word0[2]
*18 word0[3]
*19 word1[0]
*20 word1[1]
*21 word1[2]
*22 word1[3]
*23 _000_
*24 _001_
*25 _002_
*26 _003_
*27 _004_
*28 _005_
*29 _006_
*30 _007_
*31 _008_
*32 _009_
*33 _010_
*34 _011_
*35 _012_
*36 _013_
*37 _014_
*38 _015_
*39 _016_
*40 _017_
*41 _018_
*42 _019_
*43 _020_
*44 _021_
*45 _022_
*46 _023_
*47 _024_
*48 _025_
*49 _026_
*50 _027_
*51 _028_
*52 _029_
*53 _030_
*54 _031_
*55 _032_
*56 _033_
*57 _034_
*58 _035_
*59 _036_
*60 _037_
*61 _038_
*62 _039_
*63 _040_
*64 _041_
*65 _042_
*66 _043_
*67 _044_
*68 _045_
*69 _046_
*70 _047_
*71 _048_
*72 _049_
*73 _050_
*74 _051_
*75 _052_
*76 _053_
*77 _054_
*78 _055_
*79 _056_
*80 _057_
*81 _058_
*82 _059_
*83 _060_
*84 _061_
*85 _062_
*86 _063_
*87 _064_
*88 _065_
*89 _066_
*90 _067_
*91 _068_
*92 _069_
*93 _070_
*94 _071_
*95 _072_
*96 _073_
*97 _074_
*98 _075_
*99 _076_
*100 _077_
*101 _078_
*102 _079_
*103 _080_
*104 _081_
*105 _082_
*106 _083_
*107 _084_
*108 _085_
*109 _086_
*110 _087_
*111 _088_
*112 _089_
*113 _090_
*114 _091_
*115 _092_
*116 _093_
*117 _094_
*118 _095_
*119 _096_
*120 _097_
*121 _098_
*122 _099_
*123 _100_
*124 _101_
*125 _102_
*126 _103_
*127 _104_
*128 _105_
*129 _106_
*130 _107_
*131 _108_
*132 _109_
*133 _110_
*134 _111_
*135 _112_
*136 _113_
*137 _114_
*138 _115_
*139 _116_
*140 _117_
*141 _118_
*142 _119_
*143 _120_
*144 _121_
*145 _122_
*146 _123_
*147 _124_
*148 _125_
*149 _126_
*150 _127_
*151 _128_
*152 _129_
*153 _130_
*154 _131_
*155 _132_
*156 _133_
*157 _134_
*158 _135_
*159 _136_
*160 _137_
*161 _138_
*162 _139_
*163 _140_
*164 clknet_0_clk
*165 clknet_1_0_0_clk
*166 clknet_1_1_0_clk
*167 control_module0\.m0
*168 control_module0\.next_state
*169 control_module0\.state
*170 datapath_module0\.multiplicand\[0\]
*171 datapath_module0\.multiplicand\[1\]
*172 datapath_module0\.multiplicand\[2\]
*173 datapath_module0\.multiplicand\[3\]
*174 datapath_module0\.multiplicand\[4\]
*175 datapath_module0\.multiplicand\[5\]
*176 datapath_module0\.multiplicand\[6\]
*177 datapath_module0\.multiplicand\[7\]
*178 datapath_module0\.multiplier\[1\]
*179 datapath_module0\.multiplier\[2\]
*180 datapath_module0\.multiplier\[3\]
*181 net1
*182 net10
*183 net11
*184 net12
*185 net13
*186 net14
*187 net15
*188 net16
*189 net17
*190 net18
*191 net19
*192 net2
*193 net3
*194 net4
*195 net5
*196 net6
*197 net7
*198 net8
*199 net9
*200 ANTENNA_0
*201 ANTENNA_1
*202 ANTENNA_2
*203 FILLER_0_109
*204 FILLER_0_113
*205 FILLER_0_125
*206 FILLER_0_137
*207 FILLER_0_145
*208 FILLER_0_157
*209 FILLER_0_165
*210 FILLER_0_169
*211 FILLER_0_181
*212 FILLER_0_19
*213 FILLER_0_193
*214 FILLER_0_197
*215 FILLER_0_205
*216 FILLER_0_211
*217 FILLER_0_223
*218 FILLER_0_225
*219 FILLER_0_237
*220 FILLER_0_249
*221 FILLER_0_253
*222 FILLER_0_265
*223 FILLER_0_27
*224 FILLER_0_277
*225 FILLER_0_285
*226 FILLER_0_29
*227 FILLER_0_297
*228 FILLER_0_305
*229 FILLER_0_309
*230 FILLER_0_321
*231 FILLER_0_333
*232 FILLER_0_337
*233 FILLER_0_349
*234 FILLER_0_357
*235 FILLER_0_363
*236 FILLER_0_365
*237 FILLER_0_377
*238 FILLER_0_389
*239 FILLER_0_393
*240 FILLER_0_405
*241 FILLER_0_41
*242 FILLER_0_53
*243 FILLER_0_57
*244 FILLER_0_65
*245 FILLER_0_7
*246 FILLER_0_77
*247 FILLER_0_83
*248 FILLER_0_85
*249 FILLER_0_97
*250 FILLER_10_109
*251 FILLER_10_121
*252 FILLER_10_133
*253 FILLER_10_139
*254 FILLER_10_141
*255 FILLER_10_15
*256 FILLER_10_153
*257 FILLER_10_165
*258 FILLER_10_177
*259 FILLER_10_189
*260 FILLER_10_195
*261 FILLER_10_197
*262 FILLER_10_209
*263 FILLER_10_221
*264 FILLER_10_233
*265 FILLER_10_245
*266 FILLER_10_251
*267 FILLER_10_253
*268 FILLER_10_265
*269 FILLER_10_27
*270 FILLER_10_277
*271 FILLER_10_289
*272 FILLER_10_29
*273 FILLER_10_3
*274 FILLER_10_301
*275 FILLER_10_307
*276 FILLER_10_309
*277 FILLER_10_321
*278 FILLER_10_333
*279 FILLER_10_345
*280 FILLER_10_357
*281 FILLER_10_363
*282 FILLER_10_365
*283 FILLER_10_377
*284 FILLER_10_389
*285 FILLER_10_401
*286 FILLER_10_41
*287 FILLER_10_53
*288 FILLER_10_65
*289 FILLER_10_77
*290 FILLER_10_83
*291 FILLER_10_85
*292 FILLER_10_97
*293 FILLER_11_105
*294 FILLER_11_111
*295 FILLER_11_113
*296 FILLER_11_125
*297 FILLER_11_137
*298 FILLER_11_149
*299 FILLER_11_15
*300 FILLER_11_161
*301 FILLER_11_167
*302 FILLER_11_169
*303 FILLER_11_181
*304 FILLER_11_193
*305 FILLER_11_205
*306 FILLER_11_217
*307 FILLER_11_223
*308 FILLER_11_225
*309 FILLER_11_237
*310 FILLER_11_249
*311 FILLER_11_261
*312 FILLER_11_27
*313 FILLER_11_273
*314 FILLER_11_279
*315 FILLER_11_281
*316 FILLER_11_293
*317 FILLER_11_3
*318 FILLER_11_305
*319 FILLER_11_317
*320 FILLER_11_329
*321 FILLER_11_335
*322 FILLER_11_337
*323 FILLER_11_349
*324 FILLER_11_361
*325 FILLER_11_373
*326 FILLER_11_385
*327 FILLER_11_39
*328 FILLER_11_391
*329 FILLER_11_393
*330 FILLER_11_405
*331 FILLER_11_51
*332 FILLER_11_55
*333 FILLER_11_57
*334 FILLER_11_69
*335 FILLER_11_81
*336 FILLER_11_93
*337 FILLER_12_109
*338 FILLER_12_121
*339 FILLER_12_133
*340 FILLER_12_139
*341 FILLER_12_141
*342 FILLER_12_15
*343 FILLER_12_153
*344 FILLER_12_165
*345 FILLER_12_177
*346 FILLER_12_189
*347 FILLER_12_195
*348 FILLER_12_197
*349 FILLER_12_209
*350 FILLER_12_221
*351 FILLER_12_233
*352 FILLER_12_245
*353 FILLER_12_251
*354 FILLER_12_253
*355 FILLER_12_265
*356 FILLER_12_27
*357 FILLER_12_277
*358 FILLER_12_289
*359 FILLER_12_29
*360 FILLER_12_3
*361 FILLER_12_301
*362 FILLER_12_307
*363 FILLER_12_309
*364 FILLER_12_321
*365 FILLER_12_333
*366 FILLER_12_345
*367 FILLER_12_357
*368 FILLER_12_363
*369 FILLER_12_365
*370 FILLER_12_377
*371 FILLER_12_389
*372 FILLER_12_401
*373 FILLER_12_41
*374 FILLER_12_53
*375 FILLER_12_65
*376 FILLER_12_77
*377 FILLER_12_83
*378 FILLER_12_85
*379 FILLER_12_97
*380 FILLER_13_105
*381 FILLER_13_111
*382 FILLER_13_113
*383 FILLER_13_125
*384 FILLER_13_137
*385 FILLER_13_149
*386 FILLER_13_15
*387 FILLER_13_161
*388 FILLER_13_167
*389 FILLER_13_169
*390 FILLER_13_181
*391 FILLER_13_193
*392 FILLER_13_205
*393 FILLER_13_217
*394 FILLER_13_223
*395 FILLER_13_225
*396 FILLER_13_237
*397 FILLER_13_249
*398 FILLER_13_261
*399 FILLER_13_27
*400 FILLER_13_273
*401 FILLER_13_279
*402 FILLER_13_281
*403 FILLER_13_293
*404 FILLER_13_3
*405 FILLER_13_305
*406 FILLER_13_317
*407 FILLER_13_329
*408 FILLER_13_335
*409 FILLER_13_337
*410 FILLER_13_349
*411 FILLER_13_361
*412 FILLER_13_373
*413 FILLER_13_385
*414 FILLER_13_39
*415 FILLER_13_391
*416 FILLER_13_393
*417 FILLER_13_405
*418 FILLER_13_51
*419 FILLER_13_55
*420 FILLER_13_57
*421 FILLER_13_69
*422 FILLER_13_81
*423 FILLER_13_93
*424 FILLER_14_109
*425 FILLER_14_11
*426 FILLER_14_121
*427 FILLER_14_133
*428 FILLER_14_139
*429 FILLER_14_141
*430 FILLER_14_153
*431 FILLER_14_165
*432 FILLER_14_177
*433 FILLER_14_189
*434 FILLER_14_195
*435 FILLER_14_197
*436 FILLER_14_209
*437 FILLER_14_221
*438 FILLER_14_23
*439 FILLER_14_233
*440 FILLER_14_245
*441 FILLER_14_251
*442 FILLER_14_253
*443 FILLER_14_265
*444 FILLER_14_27
*445 FILLER_14_277
*446 FILLER_14_289
*447 FILLER_14_29
*448 FILLER_14_3
*449 FILLER_14_301
*450 FILLER_14_307
*451 FILLER_14_309
*452 FILLER_14_321
*453 FILLER_14_333
*454 FILLER_14_345
*455 FILLER_14_357
*456 FILLER_14_363
*457 FILLER_14_365
*458 FILLER_14_377
*459 FILLER_14_389
*460 FILLER_14_401
*461 FILLER_14_41
*462 FILLER_14_53
*463 FILLER_14_65
*464 FILLER_14_77
*465 FILLER_14_83
*466 FILLER_14_85
*467 FILLER_14_97
*468 FILLER_15_105
*469 FILLER_15_111
*470 FILLER_15_113
*471 FILLER_15_125
*472 FILLER_15_137
*473 FILLER_15_149
*474 FILLER_15_15
*475 FILLER_15_161
*476 FILLER_15_167
*477 FILLER_15_169
*478 FILLER_15_181
*479 FILLER_15_193
*480 FILLER_15_205
*481 FILLER_15_217
*482 FILLER_15_223
*483 FILLER_15_225
*484 FILLER_15_237
*485 FILLER_15_249
*486 FILLER_15_261
*487 FILLER_15_27
*488 FILLER_15_273
*489 FILLER_15_279
*490 FILLER_15_281
*491 FILLER_15_293
*492 FILLER_15_3
*493 FILLER_15_305
*494 FILLER_15_317
*495 FILLER_15_329
*496 FILLER_15_335
*497 FILLER_15_337
*498 FILLER_15_349
*499 FILLER_15_361
*500 FILLER_15_373
*501 FILLER_15_385
*502 FILLER_15_39
*503 FILLER_15_391
*504 FILLER_15_393
*505 FILLER_15_403
*506 FILLER_15_51
*507 FILLER_15_55
*508 FILLER_15_57
*509 FILLER_15_69
*510 FILLER_15_81
*511 FILLER_15_93
*512 FILLER_16_109
*513 FILLER_16_121
*514 FILLER_16_133
*515 FILLER_16_139
*516 FILLER_16_141
*517 FILLER_16_15
*518 FILLER_16_153
*519 FILLER_16_165
*520 FILLER_16_177
*521 FILLER_16_189
*522 FILLER_16_195
*523 FILLER_16_197
*524 FILLER_16_209
*525 FILLER_16_221
*526 FILLER_16_233
*527 FILLER_16_245
*528 FILLER_16_251
*529 FILLER_16_253
*530 FILLER_16_265
*531 FILLER_16_27
*532 FILLER_16_277
*533 FILLER_16_289
*534 FILLER_16_29
*535 FILLER_16_3
*536 FILLER_16_301
*537 FILLER_16_307
*538 FILLER_16_309
*539 FILLER_16_321
*540 FILLER_16_333
*541 FILLER_16_345
*542 FILLER_16_357
*543 FILLER_16_363
*544 FILLER_16_365
*545 FILLER_16_377
*546 FILLER_16_389
*547 FILLER_16_401
*548 FILLER_16_41
*549 FILLER_16_53
*550 FILLER_16_65
*551 FILLER_16_77
*552 FILLER_16_83
*553 FILLER_16_85
*554 FILLER_16_97
*555 FILLER_17_105
*556 FILLER_17_111
*557 FILLER_17_113
*558 FILLER_17_125
*559 FILLER_17_137
*560 FILLER_17_149
*561 FILLER_17_15
*562 FILLER_17_161
*563 FILLER_17_167
*564 FILLER_17_169
*565 FILLER_17_181
*566 FILLER_17_193
*567 FILLER_17_205
*568 FILLER_17_217
*569 FILLER_17_223
*570 FILLER_17_225
*571 FILLER_17_237
*572 FILLER_17_249
*573 FILLER_17_261
*574 FILLER_17_27
*575 FILLER_17_273
*576 FILLER_17_279
*577 FILLER_17_281
*578 FILLER_17_293
*579 FILLER_17_3
*580 FILLER_17_305
*581 FILLER_17_317
*582 FILLER_17_329
*583 FILLER_17_335
*584 FILLER_17_337
*585 FILLER_17_349
*586 FILLER_17_361
*587 FILLER_17_373
*588 FILLER_17_385
*589 FILLER_17_39
*590 FILLER_17_391
*591 FILLER_17_393
*592 FILLER_17_405
*593 FILLER_17_51
*594 FILLER_17_55
*595 FILLER_17_57
*596 FILLER_17_69
*597 FILLER_17_81
*598 FILLER_17_93
*599 FILLER_18_109
*600 FILLER_18_121
*601 FILLER_18_133
*602 FILLER_18_139
*603 FILLER_18_141
*604 FILLER_18_15
*605 FILLER_18_153
*606 FILLER_18_165
*607 FILLER_18_177
*608 FILLER_18_189
*609 FILLER_18_195
*610 FILLER_18_197
*611 FILLER_18_209
*612 FILLER_18_221
*613 FILLER_18_233
*614 FILLER_18_245
*615 FILLER_18_251
*616 FILLER_18_253
*617 FILLER_18_265
*618 FILLER_18_27
*619 FILLER_18_277
*620 FILLER_18_289
*621 FILLER_18_29
*622 FILLER_18_3
*623 FILLER_18_301
*624 FILLER_18_307
*625 FILLER_18_309
*626 FILLER_18_321
*627 FILLER_18_333
*628 FILLER_18_345
*629 FILLER_18_357
*630 FILLER_18_363
*631 FILLER_18_365
*632 FILLER_18_377
*633 FILLER_18_389
*634 FILLER_18_401
*635 FILLER_18_41
*636 FILLER_18_53
*637 FILLER_18_65
*638 FILLER_18_77
*639 FILLER_18_83
*640 FILLER_18_85
*641 FILLER_18_97
*642 FILLER_19_105
*643 FILLER_19_111
*644 FILLER_19_113
*645 FILLER_19_125
*646 FILLER_19_137
*647 FILLER_19_149
*648 FILLER_19_15
*649 FILLER_19_161
*650 FILLER_19_167
*651 FILLER_19_169
*652 FILLER_19_181
*653 FILLER_19_193
*654 FILLER_19_205
*655 FILLER_19_217
*656 FILLER_19_223
*657 FILLER_19_225
*658 FILLER_19_237
*659 FILLER_19_249
*660 FILLER_19_261
*661 FILLER_19_27
*662 FILLER_19_273
*663 FILLER_19_279
*664 FILLER_19_281
*665 FILLER_19_293
*666 FILLER_19_3
*667 FILLER_19_305
*668 FILLER_19_317
*669 FILLER_19_329
*670 FILLER_19_335
*671 FILLER_19_337
*672 FILLER_19_349
*673 FILLER_19_361
*674 FILLER_19_373
*675 FILLER_19_385
*676 FILLER_19_39
*677 FILLER_19_391
*678 FILLER_19_393
*679 FILLER_19_405
*680 FILLER_19_51
*681 FILLER_19_55
*682 FILLER_19_57
*683 FILLER_19_69
*684 FILLER_19_81
*685 FILLER_19_93
*686 FILLER_1_105
*687 FILLER_1_111
*688 FILLER_1_113
*689 FILLER_1_125
*690 FILLER_1_137
*691 FILLER_1_149
*692 FILLER_1_15
*693 FILLER_1_161
*694 FILLER_1_167
*695 FILLER_1_169
*696 FILLER_1_181
*697 FILLER_1_193
*698 FILLER_1_205
*699 FILLER_1_217
*700 FILLER_1_223
*701 FILLER_1_225
*702 FILLER_1_237
*703 FILLER_1_249
*704 FILLER_1_261
*705 FILLER_1_27
*706 FILLER_1_273
*707 FILLER_1_279
*708 FILLER_1_281
*709 FILLER_1_293
*710 FILLER_1_3
*711 FILLER_1_305
*712 FILLER_1_317
*713 FILLER_1_329
*714 FILLER_1_335
*715 FILLER_1_337
*716 FILLER_1_349
*717 FILLER_1_361
*718 FILLER_1_373
*719 FILLER_1_385
*720 FILLER_1_39
*721 FILLER_1_391
*722 FILLER_1_393
*723 FILLER_1_405
*724 FILLER_1_51
*725 FILLER_1_55
*726 FILLER_1_57
*727 FILLER_1_69
*728 FILLER_1_81
*729 FILLER_1_93
*730 FILLER_20_109
*731 FILLER_20_121
*732 FILLER_20_133
*733 FILLER_20_139
*734 FILLER_20_141
*735 FILLER_20_15
*736 FILLER_20_153
*737 FILLER_20_165
*738 FILLER_20_177
*739 FILLER_20_189
*740 FILLER_20_195
*741 FILLER_20_200
*742 FILLER_20_207
*743 FILLER_20_219
*744 FILLER_20_231
*745 FILLER_20_236
*746 FILLER_20_248
*747 FILLER_20_253
*748 FILLER_20_265
*749 FILLER_20_27
*750 FILLER_20_277
*751 FILLER_20_289
*752 FILLER_20_29
*753 FILLER_20_3
*754 FILLER_20_301
*755 FILLER_20_307
*756 FILLER_20_309
*757 FILLER_20_321
*758 FILLER_20_333
*759 FILLER_20_345
*760 FILLER_20_357
*761 FILLER_20_363
*762 FILLER_20_365
*763 FILLER_20_377
*764 FILLER_20_389
*765 FILLER_20_401
*766 FILLER_20_41
*767 FILLER_20_53
*768 FILLER_20_65
*769 FILLER_20_77
*770 FILLER_20_83
*771 FILLER_20_85
*772 FILLER_20_97
*773 FILLER_21_105
*774 FILLER_21_111
*775 FILLER_21_113
*776 FILLER_21_125
*777 FILLER_21_137
*778 FILLER_21_149
*779 FILLER_21_15
*780 FILLER_21_161
*781 FILLER_21_167
*782 FILLER_21_192
*783 FILLER_21_219
*784 FILLER_21_223
*785 FILLER_21_228
*786 FILLER_21_236
*787 FILLER_21_260
*788 FILLER_21_27
*789 FILLER_21_272
*790 FILLER_21_281
*791 FILLER_21_293
*792 FILLER_21_3
*793 FILLER_21_305
*794 FILLER_21_317
*795 FILLER_21_329
*796 FILLER_21_335
*797 FILLER_21_337
*798 FILLER_21_349
*799 FILLER_21_361
*800 FILLER_21_373
*801 FILLER_21_385
*802 FILLER_21_39
*803 FILLER_21_391
*804 FILLER_21_393
*805 FILLER_21_405
*806 FILLER_21_51
*807 FILLER_21_55
*808 FILLER_21_57
*809 FILLER_21_69
*810 FILLER_21_81
*811 FILLER_21_93
*812 FILLER_22_109
*813 FILLER_22_121
*814 FILLER_22_133
*815 FILLER_22_139
*816 FILLER_22_141
*817 FILLER_22_15
*818 FILLER_22_153
*819 FILLER_22_165
*820 FILLER_22_169
*821 FILLER_22_173
*822 FILLER_22_185
*823 FILLER_22_192
*824 FILLER_22_200
*825 FILLER_22_211
*826 FILLER_22_215
*827 FILLER_22_239
*828 FILLER_22_246
*829 FILLER_22_253
*830 FILLER_22_265
*831 FILLER_22_27
*832 FILLER_22_277
*833 FILLER_22_289
*834 FILLER_22_29
*835 FILLER_22_3
*836 FILLER_22_301
*837 FILLER_22_307
*838 FILLER_22_309
*839 FILLER_22_321
*840 FILLER_22_333
*841 FILLER_22_345
*842 FILLER_22_357
*843 FILLER_22_363
*844 FILLER_22_365
*845 FILLER_22_377
*846 FILLER_22_389
*847 FILLER_22_401
*848 FILLER_22_41
*849 FILLER_22_53
*850 FILLER_22_65
*851 FILLER_22_77
*852 FILLER_22_83
*853 FILLER_22_85
*854 FILLER_22_97
*855 FILLER_23_105
*856 FILLER_23_111
*857 FILLER_23_113
*858 FILLER_23_125
*859 FILLER_23_137
*860 FILLER_23_149
*861 FILLER_23_15
*862 FILLER_23_157
*863 FILLER_23_163
*864 FILLER_23_167
*865 FILLER_23_169
*866 FILLER_23_173
*867 FILLER_23_186
*868 FILLER_23_194
*869 FILLER_23_203
*870 FILLER_23_210
*871 FILLER_23_216
*872 FILLER_23_220
*873 FILLER_23_225
*874 FILLER_23_232
*875 FILLER_23_240
*876 FILLER_23_244
*877 FILLER_23_256
*878 FILLER_23_268
*879 FILLER_23_27
*880 FILLER_23_281
*881 FILLER_23_293
*882 FILLER_23_3
*883 FILLER_23_305
*884 FILLER_23_317
*885 FILLER_23_329
*886 FILLER_23_335
*887 FILLER_23_337
*888 FILLER_23_349
*889 FILLER_23_361
*890 FILLER_23_373
*891 FILLER_23_385
*892 FILLER_23_39
*893 FILLER_23_391
*894 FILLER_23_393
*895 FILLER_23_405
*896 FILLER_23_51
*897 FILLER_23_55
*898 FILLER_23_57
*899 FILLER_23_69
*900 FILLER_23_81
*901 FILLER_23_93
*902 FILLER_24_109
*903 FILLER_24_121
*904 FILLER_24_133
*905 FILLER_24_139
*906 FILLER_24_141
*907 FILLER_24_15
*908 FILLER_24_153
*909 FILLER_24_176
*910 FILLER_24_187
*911 FILLER_24_195
*912 FILLER_24_201
*913 FILLER_24_213
*914 FILLER_24_222
*915 FILLER_24_226
*916 FILLER_24_234
*917 FILLER_24_245
*918 FILLER_24_251
*919 FILLER_24_256
*920 FILLER_24_268
*921 FILLER_24_27
*922 FILLER_24_280
*923 FILLER_24_29
*924 FILLER_24_292
*925 FILLER_24_3
*926 FILLER_24_304
*927 FILLER_24_309
*928 FILLER_24_321
*929 FILLER_24_333
*930 FILLER_24_345
*931 FILLER_24_357
*932 FILLER_24_363
*933 FILLER_24_365
*934 FILLER_24_377
*935 FILLER_24_389
*936 FILLER_24_401
*937 FILLER_24_41
*938 FILLER_24_53
*939 FILLER_24_65
*940 FILLER_24_77
*941 FILLER_24_83
*942 FILLER_24_85
*943 FILLER_24_97
*944 FILLER_25_105
*945 FILLER_25_111
*946 FILLER_25_113
*947 FILLER_25_125
*948 FILLER_25_137
*949 FILLER_25_149
*950 FILLER_25_15
*951 FILLER_25_154
*952 FILLER_25_161
*953 FILLER_25_167
*954 FILLER_25_169
*955 FILLER_25_173
*956 FILLER_25_181
*957 FILLER_25_188
*958 FILLER_25_196
*959 FILLER_25_200
*960 FILLER_25_207
*961 FILLER_25_220
*962 FILLER_25_233
*963 FILLER_25_247
*964 FILLER_25_256
*965 FILLER_25_264
*966 FILLER_25_27
*967 FILLER_25_276
*968 FILLER_25_281
*969 FILLER_25_293
*970 FILLER_25_3
*971 FILLER_25_305
*972 FILLER_25_317
*973 FILLER_25_329
*974 FILLER_25_335
*975 FILLER_25_337
*976 FILLER_25_349
*977 FILLER_25_361
*978 FILLER_25_373
*979 FILLER_25_385
*980 FILLER_25_39
*981 FILLER_25_391
*982 FILLER_25_393
*983 FILLER_25_405
*984 FILLER_25_51
*985 FILLER_25_55
*986 FILLER_25_57
*987 FILLER_25_69
*988 FILLER_25_81
*989 FILLER_25_93
*990 FILLER_26_109
*991 FILLER_26_121
*992 FILLER_26_133
*993 FILLER_26_139
*994 FILLER_26_141
*995 FILLER_26_149
*996 FILLER_26_15
*997 FILLER_26_172
*998 FILLER_26_176
*999 FILLER_26_180
*1000 FILLER_26_191
*1001 FILLER_26_195
*1002 FILLER_26_204
*1003 FILLER_26_215
*1004 FILLER_26_223
*1005 FILLER_26_233
*1006 FILLER_26_245
*1007 FILLER_26_251
*1008 FILLER_26_256
*1009 FILLER_26_268
*1010 FILLER_26_27
*1011 FILLER_26_280
*1012 FILLER_26_29
*1013 FILLER_26_292
*1014 FILLER_26_3
*1015 FILLER_26_304
*1016 FILLER_26_309
*1017 FILLER_26_321
*1018 FILLER_26_333
*1019 FILLER_26_345
*1020 FILLER_26_357
*1021 FILLER_26_363
*1022 FILLER_26_365
*1023 FILLER_26_377
*1024 FILLER_26_389
*1025 FILLER_26_401
*1026 FILLER_26_41
*1027 FILLER_26_53
*1028 FILLER_26_65
*1029 FILLER_26_77
*1030 FILLER_26_83
*1031 FILLER_26_85
*1032 FILLER_26_97
*1033 FILLER_27_105
*1034 FILLER_27_111
*1035 FILLER_27_113
*1036 FILLER_27_125
*1037 FILLER_27_137
*1038 FILLER_27_149
*1039 FILLER_27_15
*1040 FILLER_27_153
*1041 FILLER_27_157
*1042 FILLER_27_164
*1043 FILLER_27_169
*1044 FILLER_27_176
*1045 FILLER_27_188
*1046 FILLER_27_196
*1047 FILLER_27_218
*1048 FILLER_27_228
*1049 FILLER_27_232
*1050 FILLER_27_238
*1051 FILLER_27_245
*1052 FILLER_27_252
*1053 FILLER_27_259
*1054 FILLER_27_27
*1055 FILLER_27_271
*1056 FILLER_27_279
*1057 FILLER_27_281
*1058 FILLER_27_293
*1059 FILLER_27_3
*1060 FILLER_27_305
*1061 FILLER_27_317
*1062 FILLER_27_329
*1063 FILLER_27_335
*1064 FILLER_27_337
*1065 FILLER_27_349
*1066 FILLER_27_361
*1067 FILLER_27_373
*1068 FILLER_27_385
*1069 FILLER_27_39
*1070 FILLER_27_391
*1071 FILLER_27_393
*1072 FILLER_27_405
*1073 FILLER_27_51
*1074 FILLER_27_55
*1075 FILLER_27_57
*1076 FILLER_27_69
*1077 FILLER_27_81
*1078 FILLER_27_93
*1079 FILLER_28_109
*1080 FILLER_28_121
*1081 FILLER_28_133
*1082 FILLER_28_139
*1083 FILLER_28_141
*1084 FILLER_28_15
*1085 FILLER_28_152
*1086 FILLER_28_160
*1087 FILLER_28_169
*1088 FILLER_28_173
*1089 FILLER_28_178
*1090 FILLER_28_192
*1091 FILLER_28_197
*1092 FILLER_28_211
*1093 FILLER_28_219
*1094 FILLER_28_226
*1095 FILLER_28_234
*1096 FILLER_28_240
*1097 FILLER_28_248
*1098 FILLER_28_256
*1099 FILLER_28_263
*1100 FILLER_28_27
*1101 FILLER_28_272
*1102 FILLER_28_284
*1103 FILLER_28_29
*1104 FILLER_28_296
*1105 FILLER_28_3
*1106 FILLER_28_309
*1107 FILLER_28_321
*1108 FILLER_28_333
*1109 FILLER_28_345
*1110 FILLER_28_357
*1111 FILLER_28_363
*1112 FILLER_28_365
*1113 FILLER_28_377
*1114 FILLER_28_389
*1115 FILLER_28_401
*1116 FILLER_28_41
*1117 FILLER_28_53
*1118 FILLER_28_65
*1119 FILLER_28_77
*1120 FILLER_28_83
*1121 FILLER_28_85
*1122 FILLER_28_97
*1123 FILLER_29_105
*1124 FILLER_29_111
*1125 FILLER_29_113
*1126 FILLER_29_125
*1127 FILLER_29_137
*1128 FILLER_29_15
*1129 FILLER_29_164
*1130 FILLER_29_169
*1131 FILLER_29_174
*1132 FILLER_29_185
*1133 FILLER_29_194
*1134 FILLER_29_198
*1135 FILLER_29_220
*1136 FILLER_29_228
*1137 FILLER_29_239
*1138 FILLER_29_248
*1139 FILLER_29_252
*1140 FILLER_29_27
*1141 FILLER_29_276
*1142 FILLER_29_281
*1143 FILLER_29_293
*1144 FILLER_29_3
*1145 FILLER_29_305
*1146 FILLER_29_317
*1147 FILLER_29_329
*1148 FILLER_29_335
*1149 FILLER_29_337
*1150 FILLER_29_349
*1151 FILLER_29_361
*1152 FILLER_29_373
*1153 FILLER_29_385
*1154 FILLER_29_39
*1155 FILLER_29_391
*1156 FILLER_29_393
*1157 FILLER_29_405
*1158 FILLER_29_51
*1159 FILLER_29_55
*1160 FILLER_29_57
*1161 FILLER_29_69
*1162 FILLER_29_81
*1163 FILLER_29_93
*1164 FILLER_2_109
*1165 FILLER_2_121
*1166 FILLER_2_133
*1167 FILLER_2_139
*1168 FILLER_2_141
*1169 FILLER_2_15
*1170 FILLER_2_153
*1171 FILLER_2_165
*1172 FILLER_2_177
*1173 FILLER_2_189
*1174 FILLER_2_195
*1175 FILLER_2_197
*1176 FILLER_2_209
*1177 FILLER_2_221
*1178 FILLER_2_233
*1179 FILLER_2_245
*1180 FILLER_2_251
*1181 FILLER_2_253
*1182 FILLER_2_265
*1183 FILLER_2_27
*1184 FILLER_2_277
*1185 FILLER_2_289
*1186 FILLER_2_29
*1187 FILLER_2_3
*1188 FILLER_2_301
*1189 FILLER_2_307
*1190 FILLER_2_309
*1191 FILLER_2_321
*1192 FILLER_2_333
*1193 FILLER_2_345
*1194 FILLER_2_357
*1195 FILLER_2_363
*1196 FILLER_2_365
*1197 FILLER_2_377
*1198 FILLER_2_389
*1199 FILLER_2_401
*1200 FILLER_2_41
*1201 FILLER_2_53
*1202 FILLER_2_65
*1203 FILLER_2_77
*1204 FILLER_2_83
*1205 FILLER_2_85
*1206 FILLER_2_97
*1207 FILLER_30_109
*1208 FILLER_30_121
*1209 FILLER_30_133
*1210 FILLER_30_139
*1211 FILLER_30_141
*1212 FILLER_30_15
*1213 FILLER_30_150
*1214 FILLER_30_157
*1215 FILLER_30_170
*1216 FILLER_30_183
*1217 FILLER_30_192
*1218 FILLER_30_206
*1219 FILLER_30_230
*1220 FILLER_30_238
*1221 FILLER_30_247
*1222 FILLER_30_251
*1223 FILLER_30_257
*1224 FILLER_30_264
*1225 FILLER_30_27
*1226 FILLER_30_271
*1227 FILLER_30_278
*1228 FILLER_30_285
*1229 FILLER_30_29
*1230 FILLER_30_292
*1231 FILLER_30_3
*1232 FILLER_30_304
*1233 FILLER_30_309
*1234 FILLER_30_321
*1235 FILLER_30_333
*1236 FILLER_30_345
*1237 FILLER_30_357
*1238 FILLER_30_363
*1239 FILLER_30_365
*1240 FILLER_30_377
*1241 FILLER_30_389
*1242 FILLER_30_401
*1243 FILLER_30_41
*1244 FILLER_30_53
*1245 FILLER_30_65
*1246 FILLER_30_77
*1247 FILLER_30_83
*1248 FILLER_30_85
*1249 FILLER_30_97
*1250 FILLER_31_105
*1251 FILLER_31_111
*1252 FILLER_31_113
*1253 FILLER_31_125
*1254 FILLER_31_137
*1255 FILLER_31_143
*1256 FILLER_31_15
*1257 FILLER_31_150
*1258 FILLER_31_157
*1259 FILLER_31_164
*1260 FILLER_31_169
*1261 FILLER_31_176
*1262 FILLER_31_185
*1263 FILLER_31_196
*1264 FILLER_31_220
*1265 FILLER_31_225
*1266 FILLER_31_229
*1267 FILLER_31_234
*1268 FILLER_31_246
*1269 FILLER_31_252
*1270 FILLER_31_27
*1271 FILLER_31_276
*1272 FILLER_31_281
*1273 FILLER_31_293
*1274 FILLER_31_3
*1275 FILLER_31_305
*1276 FILLER_31_317
*1277 FILLER_31_329
*1278 FILLER_31_335
*1279 FILLER_31_337
*1280 FILLER_31_349
*1281 FILLER_31_361
*1282 FILLER_31_373
*1283 FILLER_31_385
*1284 FILLER_31_39
*1285 FILLER_31_391
*1286 FILLER_31_393
*1287 FILLER_31_405
*1288 FILLER_31_51
*1289 FILLER_31_55
*1290 FILLER_31_57
*1291 FILLER_31_69
*1292 FILLER_31_81
*1293 FILLER_31_93
*1294 FILLER_32_109
*1295 FILLER_32_11
*1296 FILLER_32_121
*1297 FILLER_32_133
*1298 FILLER_32_139
*1299 FILLER_32_141
*1300 FILLER_32_164
*1301 FILLER_32_179
*1302 FILLER_32_192
*1303 FILLER_32_204
*1304 FILLER_32_228
*1305 FILLER_32_23
*1306 FILLER_32_236
*1307 FILLER_32_245
*1308 FILLER_32_251
*1309 FILLER_32_257
*1310 FILLER_32_264
*1311 FILLER_32_27
*1312 FILLER_32_271
*1313 FILLER_32_283
*1314 FILLER_32_29
*1315 FILLER_32_295
*1316 FILLER_32_3
*1317 FILLER_32_307
*1318 FILLER_32_309
*1319 FILLER_32_321
*1320 FILLER_32_333
*1321 FILLER_32_345
*1322 FILLER_32_357
*1323 FILLER_32_363
*1324 FILLER_32_365
*1325 FILLER_32_377
*1326 FILLER_32_389
*1327 FILLER_32_401
*1328 FILLER_32_41
*1329 FILLER_32_53
*1330 FILLER_32_65
*1331 FILLER_32_77
*1332 FILLER_32_83
*1333 FILLER_32_85
*1334 FILLER_32_97
*1335 FILLER_33_105
*1336 FILLER_33_111
*1337 FILLER_33_113
*1338 FILLER_33_125
*1339 FILLER_33_137
*1340 FILLER_33_145
*1341 FILLER_33_15
*1342 FILLER_33_151
*1343 FILLER_33_164
*1344 FILLER_33_177
*1345 FILLER_33_187
*1346 FILLER_33_203
*1347 FILLER_33_214
*1348 FILLER_33_222
*1349 FILLER_33_228
*1350 FILLER_33_235
*1351 FILLER_33_239
*1352 FILLER_33_245
*1353 FILLER_33_252
*1354 FILLER_33_259
*1355 FILLER_33_267
*1356 FILLER_33_27
*1357 FILLER_33_272
*1358 FILLER_33_284
*1359 FILLER_33_296
*1360 FILLER_33_3
*1361 FILLER_33_308
*1362 FILLER_33_320
*1363 FILLER_33_332
*1364 FILLER_33_337
*1365 FILLER_33_349
*1366 FILLER_33_361
*1367 FILLER_33_373
*1368 FILLER_33_385
*1369 FILLER_33_39
*1370 FILLER_33_391
*1371 FILLER_33_393
*1372 FILLER_33_403
*1373 FILLER_33_51
*1374 FILLER_33_55
*1375 FILLER_33_57
*1376 FILLER_33_69
*1377 FILLER_33_81
*1378 FILLER_33_93
*1379 FILLER_34_109
*1380 FILLER_34_121
*1381 FILLER_34_133
*1382 FILLER_34_139
*1383 FILLER_34_15
*1384 FILLER_34_161
*1385 FILLER_34_168
*1386 FILLER_34_183
*1387 FILLER_34_195
*1388 FILLER_34_207
*1389 FILLER_34_215
*1390 FILLER_34_222
*1391 FILLER_34_229
*1392 FILLER_34_245
*1393 FILLER_34_251
*1394 FILLER_34_253
*1395 FILLER_34_27
*1396 FILLER_34_279
*1397 FILLER_34_29
*1398 FILLER_34_291
*1399 FILLER_34_3
*1400 FILLER_34_303
*1401 FILLER_34_307
*1402 FILLER_34_309
*1403 FILLER_34_321
*1404 FILLER_34_333
*1405 FILLER_34_345
*1406 FILLER_34_357
*1407 FILLER_34_363
*1408 FILLER_34_365
*1409 FILLER_34_377
*1410 FILLER_34_389
*1411 FILLER_34_401
*1412 FILLER_34_41
*1413 FILLER_34_53
*1414 FILLER_34_65
*1415 FILLER_34_77
*1416 FILLER_34_83
*1417 FILLER_34_85
*1418 FILLER_34_97
*1419 FILLER_35_105
*1420 FILLER_35_111
*1421 FILLER_35_113
*1422 FILLER_35_125
*1423 FILLER_35_137
*1424 FILLER_35_149
*1425 FILLER_35_15
*1426 FILLER_35_155
*1427 FILLER_35_167
*1428 FILLER_35_169
*1429 FILLER_35_180
*1430 FILLER_35_192
*1431 FILLER_35_202
*1432 FILLER_35_213
*1433 FILLER_35_220
*1434 FILLER_35_225
*1435 FILLER_35_238
*1436 FILLER_35_250
*1437 FILLER_35_261
*1438 FILLER_35_27
*1439 FILLER_35_270
*1440 FILLER_35_278
*1441 FILLER_35_281
*1442 FILLER_35_293
*1443 FILLER_35_3
*1444 FILLER_35_305
*1445 FILLER_35_317
*1446 FILLER_35_329
*1447 FILLER_35_335
*1448 FILLER_35_337
*1449 FILLER_35_349
*1450 FILLER_35_361
*1451 FILLER_35_373
*1452 FILLER_35_385
*1453 FILLER_35_39
*1454 FILLER_35_391
*1455 FILLER_35_393
*1456 FILLER_35_405
*1457 FILLER_35_51
*1458 FILLER_35_55
*1459 FILLER_35_57
*1460 FILLER_35_69
*1461 FILLER_35_81
*1462 FILLER_35_93
*1463 FILLER_36_109
*1464 FILLER_36_121
*1465 FILLER_36_133
*1466 FILLER_36_139
*1467 FILLER_36_141
*1468 FILLER_36_15
*1469 FILLER_36_163
*1470 FILLER_36_169
*1471 FILLER_36_179
*1472 FILLER_36_192
*1473 FILLER_36_197
*1474 FILLER_36_202
*1475 FILLER_36_226
*1476 FILLER_36_230
*1477 FILLER_36_236
*1478 FILLER_36_248
*1479 FILLER_36_256
*1480 FILLER_36_27
*1481 FILLER_36_283
*1482 FILLER_36_29
*1483 FILLER_36_295
*1484 FILLER_36_3
*1485 FILLER_36_307
*1486 FILLER_36_309
*1487 FILLER_36_321
*1488 FILLER_36_333
*1489 FILLER_36_345
*1490 FILLER_36_357
*1491 FILLER_36_363
*1492 FILLER_36_365
*1493 FILLER_36_377
*1494 FILLER_36_389
*1495 FILLER_36_401
*1496 FILLER_36_41
*1497 FILLER_36_53
*1498 FILLER_36_65
*1499 FILLER_36_77
*1500 FILLER_36_83
*1501 FILLER_36_85
*1502 FILLER_36_97
*1503 FILLER_37_105
*1504 FILLER_37_111
*1505 FILLER_37_113
*1506 FILLER_37_125
*1507 FILLER_37_137
*1508 FILLER_37_149
*1509 FILLER_37_15
*1510 FILLER_37_153
*1511 FILLER_37_164
*1512 FILLER_37_189
*1513 FILLER_37_197
*1514 FILLER_37_219
*1515 FILLER_37_223
*1516 FILLER_37_228
*1517 FILLER_37_240
*1518 FILLER_37_244
*1519 FILLER_37_253
*1520 FILLER_37_262
*1521 FILLER_37_27
*1522 FILLER_37_274
*1523 FILLER_37_281
*1524 FILLER_37_293
*1525 FILLER_37_3
*1526 FILLER_37_305
*1527 FILLER_37_317
*1528 FILLER_37_329
*1529 FILLER_37_335
*1530 FILLER_37_337
*1531 FILLER_37_349
*1532 FILLER_37_361
*1533 FILLER_37_373
*1534 FILLER_37_385
*1535 FILLER_37_39
*1536 FILLER_37_391
*1537 FILLER_37_393
*1538 FILLER_37_405
*1539 FILLER_37_51
*1540 FILLER_37_55
*1541 FILLER_37_57
*1542 FILLER_37_69
*1543 FILLER_37_81
*1544 FILLER_37_93
*1545 FILLER_38_109
*1546 FILLER_38_121
*1547 FILLER_38_133
*1548 FILLER_38_139
*1549 FILLER_38_141
*1550 FILLER_38_15
*1551 FILLER_38_153
*1552 FILLER_38_165
*1553 FILLER_38_173
*1554 FILLER_38_185
*1555 FILLER_38_193
*1556 FILLER_38_204
*1557 FILLER_38_216
*1558 FILLER_38_228
*1559 FILLER_38_240
*1560 FILLER_38_247
*1561 FILLER_38_251
*1562 FILLER_38_253
*1563 FILLER_38_265
*1564 FILLER_38_27
*1565 FILLER_38_277
*1566 FILLER_38_289
*1567 FILLER_38_29
*1568 FILLER_38_3
*1569 FILLER_38_301
*1570 FILLER_38_307
*1571 FILLER_38_309
*1572 FILLER_38_321
*1573 FILLER_38_333
*1574 FILLER_38_345
*1575 FILLER_38_357
*1576 FILLER_38_363
*1577 FILLER_38_365
*1578 FILLER_38_377
*1579 FILLER_38_389
*1580 FILLER_38_401
*1581 FILLER_38_41
*1582 FILLER_38_53
*1583 FILLER_38_65
*1584 FILLER_38_77
*1585 FILLER_38_83
*1586 FILLER_38_85
*1587 FILLER_38_97
*1588 FILLER_39_105
*1589 FILLER_39_111
*1590 FILLER_39_113
*1591 FILLER_39_125
*1592 FILLER_39_137
*1593 FILLER_39_149
*1594 FILLER_39_15
*1595 FILLER_39_161
*1596 FILLER_39_167
*1597 FILLER_39_172
*1598 FILLER_39_184
*1599 FILLER_39_196
*1600 FILLER_39_208
*1601 FILLER_39_220
*1602 FILLER_39_225
*1603 FILLER_39_237
*1604 FILLER_39_249
*1605 FILLER_39_261
*1606 FILLER_39_27
*1607 FILLER_39_273
*1608 FILLER_39_279
*1609 FILLER_39_281
*1610 FILLER_39_293
*1611 FILLER_39_3
*1612 FILLER_39_305
*1613 FILLER_39_317
*1614 FILLER_39_329
*1615 FILLER_39_335
*1616 FILLER_39_337
*1617 FILLER_39_349
*1618 FILLER_39_361
*1619 FILLER_39_373
*1620 FILLER_39_385
*1621 FILLER_39_39
*1622 FILLER_39_391
*1623 FILLER_39_393