*SPEF "ieee 1481-1999"
*DESIGN "asmd_multiplier"
*DATE "11:11:11 Fri 11 11, 1111"
*VENDOR "OpenRCX"
*PROGRAM "Parallel Extraction"
*VERSION "1.0"
*DESIGN_FLOW "NAME_SCOPE LOCAL" "PIN_CAP NONE"
*DIVIDER /
*DELIMITER :
*BUS_DELIMITER []
*T_UNIT 1 NS
*C_UNIT 1 PF
*R_UNIT 1 OHM
*L_UNIT 1 HENRY

*NAME_MAP
*3 clk
*4 product[0]
*5 product[1]
*6 product[2]
*7 product[3]
*8 product[4]
*9 product[5]
*10 product[6]
*11 product[7]
*12 ready
*13 reset
*14 start
*15 word0[0]
*16 word0[1]
*17 word0[2]
*18 word0[3]
*19 word1[0]
*20 word1[1]
*21 word1[2]
*22 word1[3]
*23 _000_
*24 _001_
*25 _002_
*26 _003_
*27 _004_
*28 _005_
*29 _006_
*30 _007_
*31 _008_
*32 _009_
*33 _010_
*34 _011_
*35 _012_
*36 _013_
*37 _014_
*38 _015_
*39 _016_
*40 _017_
*41 _018_
*42 _019_
*43 _020_
*44 _021_
*45 _022_
*46 _023_
*47 _024_
*48 _025_
*49 _026_
*50 _027_
*51 _028_
*52 _029_
*53 _030_
*54 _031_
*55 _032_
*56 _033_
*57 _034_
*58 _035_
*59 _036_
*60 _037_
*61 _038_
*62 _039_
*63 _040_
*64 _041_
*65 _042_
*66 _043_
*67 _044_
*68 _045_
*69 _046_
*70 _047_
*71 _048_
*72 _049_
*73 _050_
*74 _051_
*75 _052_
*76 _053_
*77 _054_
*78 _055_
*79 _056_
*80 _057_
*81 _058_
*82 _059_
*83 _060_
*84 _061_
*85 _062_
*86 _063_
*87 _064_
*88 _065_
*89 _066_
*90 _067_
*91 _068_
*92 _069_
*93 _070_
*94 _071_
*95 _072_
*96 _073_
*97 _074_
*98 _075_
*99 _076_
*100 _077_
*101 _078_
*102 _079_
*103 _080_
*104 _081_
*105 _082_
*106 _083_
*107 _084_
*108 _085_
*109 _086_
*110 _087_
*111 _088_
*112 _089_
*113 _090_
*114 _091_
*115 _092_
*116 _093_
*117 _094_
*118 _095_
*119 _096_
*120 _097_
*121 _098_
*122 _099_
*123 _100_
*124 _101_
*125 _102_
*126 _103_
*127 _104_
*128 _105_
*129 _106_
*130 _107_
*131 _108_
*132 _109_
*133 _110_
*134 _111_
*135 _112_
*136 _113_
*137 _114_
*138 _115_
*139 _116_
*140 _117_
*141 _118_
*142 _119_
*143 _120_
*144 _121_
*145 _122_
*146 _123_
*147 _124_
*148 _125_
*149 _126_
*150 _127_
*151 _128_
*152 _129_
*153 _130_
*154 _131_
*155 _132_
*156 _133_
*157 _134_
*158 _135_
*159 _136_
*160 _137_
*161 _138_
*162 _139_
*163 _140_
*164 clknet_0_clk
*165 clknet_1_0_0_clk
*166 clknet_1_1_0_clk
*167 control_module0\.m0
*168 control_module0\.next_state
*169 control_module0\.state
*170 datapath_module0\.multiplicand\[0\]
*171 datapath_module0\.multiplicand\[1\]
*172 datapath_module0\.multiplicand\[2\]
*173 datapath_module0\.multiplicand\[3\]
*174 datapath_module0\.multiplicand\[4\]
*175 datapath_module0\.multiplicand\[5\]
*176 datapath_module0\.multiplicand\[6\]
*177 datapath_module0\.multiplicand\[7\]
*178 datapath_module0\.multiplier\[1\]
*179 datapath_module0\.multiplier\[2\]
*180 datapath_module0\.multiplier\[3\]
*181 net1
*182 net10
*183 net11
*184 net12
*185 net13
*186 net14
*187 net15
*188 net16
*189 net17
*190 net18
*191 net19
*192 net2
*193 net3
*194 net4
*195 net5
*196 net6
*197 net7
*198 net8
*199 net9
*200 FILLER_0_100
*201 FILLER_0_113
*202 FILLER_0_121
*203 FILLER_0_13
*204 FILLER_0_133
*205 FILLER_0_139
*206 FILLER_0_145
*207 FILLER_0_24
*208 FILLER_0_29
*209 FILLER_0_41
*210 FILLER_0_53
*211 FILLER_0_61
*212 FILLER_0_7
*213 FILLER_0_73
*214 FILLER_0_81
*215 FILLER_0_88
*216 FILLER_10_110
*217 FILLER_10_121
*218 FILLER_10_132
*219 FILLER_10_141
*220 FILLER_10_145
*221 FILLER_10_15
*222 FILLER_10_27
*223 FILLER_10_3
*224 FILLER_10_49
*225 FILLER_10_58
*226 FILLER_10_71
*227 FILLER_10_80
*228 FILLER_10_85
*229 FILLER_11_106
*230 FILLER_11_113
*231 FILLER_11_117
*232 FILLER_11_139
*233 FILLER_11_147
*234 FILLER_11_15
*235 FILLER_11_3
*236 FILLER_11_30
*237 FILLER_11_37
*238 FILLER_11_43
*239 FILLER_11_51
*240 FILLER_11_55
*241 FILLER_11_57
*242 FILLER_11_71
*243 FILLER_11_82
*244 FILLER_11_90
*245 FILLER_11_98
*246 FILLER_12_103
*247 FILLER_12_118
*248 FILLER_12_131
*249 FILLER_12_139
*250 FILLER_12_144
*251 FILLER_12_148
*252 FILLER_12_18
*253 FILLER_12_24
*254 FILLER_12_32
*255 FILLER_12_40
*256 FILLER_12_49
*257 FILLER_12_55
*258 FILLER_12_59
*259 FILLER_12_6
*260 FILLER_12_73
*261 FILLER_12_80
*262 FILLER_12_94
*263 FILLER_13_108
*264 FILLER_13_113
*265 FILLER_13_118
*266 FILLER_13_143
*267 FILLER_13_15
*268 FILLER_13_3
*269 FILLER_13_37
*270 FILLER_13_50
*271 FILLER_13_57
*272 FILLER_13_61
*273 FILLER_13_66
*274 FILLER_13_90
*275 FILLER_13_98
*276 FILLER_14_120
*277 FILLER_14_131
*278 FILLER_14_139
*279 FILLER_14_144
*280 FILLER_14_148
*281 FILLER_14_15
*282 FILLER_14_27
*283 FILLER_14_3
*284 FILLER_14_32
*285 FILLER_14_45
*286 FILLER_14_53
*287 FILLER_14_57
*288 FILLER_14_66
*289 FILLER_14_80
*290 FILLER_14_92
*291 FILLER_15_105
*292 FILLER_15_111
*293 FILLER_15_120
*294 FILLER_15_128
*295 FILLER_15_133
*296 FILLER_15_140
*297 FILLER_15_148
*298 FILLER_15_15
*299 FILLER_15_27
*300 FILLER_15_3
*301 FILLER_15_34
*302 FILLER_15_41
*303 FILLER_15_52
*304 FILLER_15_77
*305 FILLER_15_88
*306 FILLER_15_96
*307 FILLER_16_105
*308 FILLER_16_136
*309 FILLER_16_144
*310 FILLER_16_148
*311 FILLER_16_15
*312 FILLER_16_27
*313 FILLER_16_29
*314 FILLER_16_3
*315 FILLER_16_41
*316 FILLER_16_48
*317 FILLER_16_55
*318 FILLER_16_80
*319 FILLER_17_104
*320 FILLER_17_116
*321 FILLER_17_123
*322 FILLER_17_127
*323 FILLER_17_132
*324 FILLER_17_139
*325 FILLER_17_147
*326 FILLER_17_15
*327 FILLER_17_27
*328 FILLER_17_3
*329 FILLER_17_35
*330 FILLER_17_43
*331 FILLER_17_50
*332 FILLER_17_57
*333 FILLER_17_63
*334 FILLER_17_72
*335 FILLER_17_83
*336 FILLER_17_90
*337 FILLER_17_97
*338 FILLER_18_100
*339 FILLER_18_104
*340 FILLER_18_109
*341 FILLER_18_115
*342 FILLER_18_121
*343 FILLER_18_132
*344 FILLER_18_144
*345 FILLER_18_148
*346 FILLER_18_15
*347 FILLER_18_27
*348 FILLER_18_29
*349 FILLER_18_3
*350 FILLER_18_36
*351 FILLER_18_45
*352 FILLER_18_57
*353 FILLER_18_69
*354 FILLER_18_75
*355 FILLER_18_80
*356 FILLER_18_88
*357 FILLER_18_94
*358 FILLER_19_108
*359 FILLER_19_113
*360 FILLER_19_123
*361 FILLER_19_13
*362 FILLER_19_130
*363 FILLER_19_142
*364 FILLER_19_148
*365 FILLER_19_39
*366 FILLER_19_51
*367 FILLER_19_55
*368 FILLER_19_64
*369 FILLER_19_72
*370 FILLER_19_81
*371 FILLER_19_89
*372 FILLER_19_97
*373 FILLER_1_105
*374 FILLER_1_111
*375 FILLER_1_113
*376 FILLER_1_125
*377 FILLER_1_137
*378 FILLER_1_15
*379 FILLER_1_27
*380 FILLER_1_3
*381 FILLER_1_39
*382 FILLER_1_51
*383 FILLER_1_55
*384 FILLER_1_57
*385 FILLER_1_69
*386 FILLER_1_81
*387 FILLER_1_93
*388 FILLER_20_101
*389 FILLER_20_110
*390 FILLER_20_118
*391 FILLER_20_127
*392 FILLER_20_136
*393 FILLER_20_144
*394 FILLER_20_148
*395 FILLER_20_15
*396 FILLER_20_27
*397 FILLER_20_3
*398 FILLER_20_32
*399 FILLER_20_39
*400 FILLER_20_52
*401 FILLER_20_65
*402 FILLER_20_72
*403 FILLER_20_79
*404 FILLER_20_83
*405 FILLER_20_93
*406 FILLER_21_104
*407 FILLER_21_108
*408 FILLER_21_116
*409 FILLER_21_124
*410 FILLER_21_131
*411 FILLER_21_135
*412 FILLER_21_144
*413 FILLER_21_148
*414 FILLER_21_15
*415 FILLER_21_27
*416 FILLER_21_3
*417 FILLER_21_33
*418 FILLER_21_37
*419 FILLER_21_49
*420 FILLER_21_55
*421 FILLER_21_57
*422 FILLER_21_61
*423 FILLER_21_66
*424 FILLER_21_75
*425 FILLER_21_81
*426 FILLER_21_86
*427 FILLER_21_94
*428 FILLER_21_98
*429 FILLER_22_105
*430 FILLER_22_112
*431 FILLER_22_116
*432 FILLER_22_125
*433 FILLER_22_132
*434 FILLER_22_145
*435 FILLER_22_15
*436 FILLER_22_27
*437 FILLER_22_29
*438 FILLER_22_3
*439 FILLER_22_37
*440 FILLER_22_59
*441 FILLER_22_73
*442 FILLER_22_80
*443 FILLER_23_105
*444 FILLER_23_111
*445 FILLER_23_133
*446 FILLER_23_140
*447 FILLER_23_148
*448 FILLER_23_19
*449 FILLER_23_31
*450 FILLER_23_43
*451 FILLER_23_48
*452 FILLER_23_60
*453 FILLER_23_64
*454 FILLER_23_7
*455 FILLER_23_88
*456 FILLER_23_95
*457 FILLER_24_106
*458 FILLER_24_113
*459 FILLER_24_118
*460 FILLER_24_125
*461 FILLER_24_132
*462 FILLER_24_145
*463 FILLER_24_17
*464 FILLER_24_25
*465 FILLER_24_29
*466 FILLER_24_3
*467 FILLER_24_37
*468 FILLER_24_43
*469 FILLER_24_55
*470 FILLER_24_57
*471 FILLER_24_63
*472 FILLER_24_67
*473 FILLER_24_75
*474 FILLER_24_83
*475 FILLER_24_85
*476 FILLER_2_109
*477 FILLER_2_121
*478 FILLER_2_133
*479 FILLER_2_139
*480 FILLER_2_141
*481 FILLER_2_15
*482 FILLER_2_27
*483 FILLER_2_29
*484 FILLER_2_3
*485 FILLER_2_41
*486 FILLER_2_53
*487 FILLER_2_65
*488 FILLER_2_72
*489 FILLER_2_85
*490 FILLER_2_97
*491 FILLER_3_107
*492 FILLER_3_111
*493 FILLER_3_113
*494 FILLER_3_125
*495 FILLER_3_137
*496 FILLER_3_15
*497 FILLER_3_27
*498 FILLER_3_3
*499 FILLER_3_39
*500 FILLER_3_51
*501 FILLER_3_55
*502 FILLER_3_57
*503 FILLER_3_83
*504 FILLER_3_95
*505 FILLER_4_104
*506 FILLER_4_116
*507 FILLER_4_128
*508 FILLER_4_13
*509 FILLER_4_141
*510 FILLER_4_25
*511 FILLER_4_29
*512 FILLER_4_41
*513 FILLER_4_67
*514 FILLER_4_74
*515 FILLER_4_82
*516 FILLER_4_92
*517 FILLER_5_111
*518 FILLER_5_113
*519 FILLER_5_125
*520 FILLER_5_137
*521 FILLER_5_15
*522 FILLER_5_27
*523 FILLER_5_3
*524 FILLER_5_39
*525 FILLER_5_51
*526 FILLER_5_55
*527 FILLER_5_60
*528 FILLER_5_66
*529 FILLER_5_74
*530 FILLER_5_87
*531 FILLER_5_99
*532 FILLER_6_116
*533 FILLER_6_128
*534 FILLER_6_141
*535 FILLER_6_15
*536 FILLER_6_27
*537 FILLER_6_29
*538 FILLER_6_3
*539 FILLER_6_41
*540 FILLER_6_52
*541 FILLER_6_59
*542 FILLER_6_66
*543 FILLER_6_80
*544 FILLER_6_88
*545 FILLER_7_104
*546 FILLER_7_113
*547 FILLER_7_125
*548 FILLER_7_137
*549 FILLER_7_141
*550 FILLER_7_145
*551 FILLER_7_15
*552 FILLER_7_27
*553 FILLER_7_3
*554 FILLER_7_42
*555 FILLER_7_49
*556 FILLER_7_55
*557 FILLER_7_77
*558 FILLER_7_83
*559 FILLER_7_93
*560 FILLER_8_104
*561 FILLER_8_111
*562 FILLER_8_118
*563 FILLER_8_130
*564 FILLER_8_138
*565 FILLER_8_141
*566 FILLER_8_15
*567 FILLER_8_27
*568 FILLER_8_29
*569 FILLER_8_3
*570 FILLER_8_50
*571 FILLER_8_57
*572 FILLER_8_64
*573 FILLER_8_75
*574 FILLER_8_83
*575 FILLER_8_94
*576 FILLER_9_106
*577 FILLER_9_116
*578 FILLER_9_128
*579 FILLER_9_140
*580 FILLER_9_144
*581 FILLER_9_148
*582 FILLER_9_15
*583 FILLER_9_27
*584 FILLER_9_3
*585 FILLER_9_38
*586 FILLER_9_42
*587 FILLER_9_50
*588 FILLER_9_57
*589 FILLER_9_61
*590 FILLER_9_66
*591 FILLER_9_72
*592 FILLER_9_77
*593 FILLER_9_90
*594 FILLER_9_94
*595 FILLER_9_98
*596 PHY_0
*597 PHY_1
*598 PHY_10
*599 PHY_11
*600 PHY_12
*601 PHY_13
*602 PHY_14
*603 PHY_15
*604 PHY_16
*605 PHY_17
*606 PHY_18
*607 PHY_19
*608 PHY_2
*609 PHY_20
*610 PHY_21
*611 PHY_22
*612 PHY_23
*613 PHY_24
*614 PHY_25
*615 PHY_26
*616 PHY_27
*617 PHY_28
*618 PHY_29
*619 PHY_3
*620 PHY_30
*621 PHY_31
*622 PHY_32
*623 PHY_33
*624 PHY_34
*625 PHY_35
*626 PHY_36
*627 PHY_37
*628 PHY_38
*629 PHY_39
*630 PHY_4
*631 PHY_40
*632 PHY_41
*633 PHY_42
*634 PHY_43
*635 PHY_44
*636 PHY_45
*637 PHY_46
*638 PHY_47
*639 PHY_48
*640 PHY_49
*641 PHY_5
*642 PHY_6
*643 PHY_7
*644 PHY_8
*645 PHY_9
*646 TAP_100
*647 TAP_101
*648 TAP_102
*649 TAP_103
*650 TAP_104
*651 TAP_105
*652 TAP_106
*653 TAP_107
*654 TAP_108
*655 TAP_109
*656 TAP_110
*657 TAP_111
*658 TAP_112
*659 TAP_113
*660 TAP_114
*661 TAP_115
*662 TAP_116
*663 TAP_50
*664 TAP_51
*665 TAP_52
*666 TAP_53
*667 TAP_54
*668 TAP_55
*669 TAP_56
*670 TAP_57
*671 TAP_58
*672 TAP_59
*673 TAP_60
*674 TAP_61
*675 TAP_62
*676 TAP_63
*677 TAP_64
*678 TAP_65
*679 TAP_66
*680 TAP_67
*681 TAP_68
*682 TAP_69
*683 TAP_70
*684 TAP_71
*685 TAP_72
*686 TAP_73
*687 TAP_74
*688 TAP_75
*689 TAP_76
*690 TAP_77
*691 TAP_78
*692 TAP_79
*693 TAP_80
*694 TAP_81
*695 TAP_82
*696 TAP_83
*697 TAP_84
*698 TAP_85
*699 TAP_86
*700 TAP_87
*701 TAP_88
*702 TAP_89
*703 TAP_90
*704 TAP_91
*705 TAP_92
*706 TAP_93
*707 TAP_94
*708 TAP_95
*709 TAP_96
*710 TAP_97
*711 TAP_98
*712 TAP_99
*713 _141_
*714 _142_
*715 _143_
*716 _144_
*717 _145_
*718 _146_
*719 _147_
*720 _148_
*721 _149_
*722 _150_
*723 _151_
*724 _152_
*725 _153_
*726 _154_
*727 _155_
*728 _156_
*729 _157_
*730 _158_
*731 _159_
*732 _160_
*733 _161_
*734 _162_
*735 _163_
*736 _164_
*737 _165_
*738 _166_
*739 _167_
*740 _168_
*741 _169_
*742 _170_
*743 _171_
*744 _172_
*745 _173_
*746 _174_
*747 _175_
*748 _176_
*749 _177_
*750 _178_
*751 _179_
*752 _180_
*753 _181_
*754 _182_
*755 _183_
*756 _184_
*757 _185_
*758 _186_
*759 _187_
*760 _188_
*761 _189_
*762 _190_
*763 _191_
*764 _192_
*765 _193_
*766 _194_
*767 _195_
*768 _196_
*769 _197_
*770 _198_
*771 _199_
*772 _200_
*773 _201_
*774 _202_
*775 _203_
*776 _204_
*777 _205_
*778 _206_
*779 _207_
*780 _208_
*781 _209_
*782 _210_
*783 _211_
*784 _212_
*785 _213_
*786 _214_
*787 _215_
*788 _216_
*789 _217_
*790 _218_
*791 _219_
*792 _220_
*793 _221_
*794 _222_
*795 _223_
*796 _224_
*797 _225_
*798 _226_
*799 _227_
*800 _228_
*801 _229_
*802 _230_
*803 _231_
*804 _232_
*805 _233_
*806 _234_
*807 _235_
*808 _236_
*809 _237_
*810 _238_
*811 _239_
*812 _240_
*813 _241_
*814 _242_
*815 _243_
*816 _244_
*817 _245_
*818 _246_
*819 _247_
*820 _248_
*821 _249_
*822 _250_
*823 _251_
*824 _252_
*825 _253_
*826 _254_
*827 _255_
*828 _256_
*829 _257_
*830 _258_
*831 _259_
*832 _260_
*833 _261_
*834 _262_
*835 _263_
*836 _264_
*837 _265_
*838 _266_
*839 _267_
*840 _268_
*841 _269_
*842 _270_
*843 _271_
*844 _272_
*845 _273_
*846 _274_
*847 _275_
*848 _276_
*849 _277_
*850 _278_
*851 _279_
*852 _280_
*853 _281_
*854 _282_
*855 _283_
*856 _284_
*857 _285_
*858 _286_
*859 _287_
*860 _288_
*861 _289_
*862 _290_
*863 _291_
*864 _292_
*865 _293_
*866 _294_
*867 _295_
*868 _296_
*869 _297_
*870 _298_
*871 _299_
*872 _300_
*873 _301_
*874 _302_
*875 _303_
*876 _304_
*877 clkbuf_0_clk
*878 clkbuf_1_0_0_clk
*879 clkbuf_1_1_0_clk
*880 input1
*881 input10
*882 input2
*883 input3
*884 input4
*885 input5
*886 input6
*887 input7
*888 input8
*889 input9
*890 output11
*891 output12
*892 output13
*893 output14
*894 output15
*895 output16
*896 output17
*897 output18
*898 output19

*PORTS
clk I
product[0] O
product[1] O
product[2] O
product[3] O
product[4] O
product[5] O
product[6] O
product[7] O
ready O
reset I
start I
word0[0] I
word0[1] I
word0[2] I
word0[3] I
word1[0] I
word1[1] I
word1[2] I
word1[3] I

*D_NET *3 0.00859044
*CONN
*P clk I
*I *877:A I *D sky130_fd_sc_hd__clkbuf_16
*CAP
1 clk 0.000748593
2 *877:A 0.000504113
3 *3:8 0.00251498
4 *3:7 0.00275946
5 *877:A *728:A 0.00138568
6 *877:A *757:A1 0.000118792
7 *877:A *855:A0 0.00011818
8 *877:A *868:CLK 8.57967e-05
9 *877:A *75:7 0.00011818
10 *3:8 *751:A1 0
11 *3:8 *754:A1 9.59254e-05
12 *3:8 *754:B1 0
13 *3:8 *867:D 0.000124086
14 *3:8 *876:RESET_B 0
15 *3:8 *880:A 0
16 *3:8 *75:17 0
17 *3:8 *172:35 1.66511e-05
18 *3:8 *181:10 0
*RES
1 clk *3:7 6.18562 
2 *3:7 *3:8 50.2089 
3 *3:8 *877:A 31.1106 
*END

*D_NET *4 0.00237786
*CONN
*P product[0] O
*I *890:X O *D sky130_fd_sc_hd__buf_2
*CAP
1 product[0] 0.000540898
2 *890:X 0.000552635
3 *4:11 0.00109353
4 *4:11 *18:10 0.000157319
5 *4:11 *183:46 3.34802e-05
*RES
1 *890:X *4:11 34.8722 
2 *4:11 product[0] 15.2422 
*END

*D_NET *5 0.00148633
*CONN
*P product[1] O
*I *891:X O *D sky130_fd_sc_hd__buf_2
*CAP
1 product[1] 0.00069937
2 *891:X 0.00069937
3 product[1] *810:A 1.78942e-05
4 product[1] *184:8 6.96979e-05
*RES
1 *891:X product[1] 33.7451 
*END

*D_NET *6 0.00129966
*CONN
*P product[2] O
*I *892:X O *D sky130_fd_sc_hd__buf_2
*CAP
1 product[2] 0.000614373
2 *892:X 0.000614373
3 product[2] *192:11 7.09148e-05
*RES
1 *892:X product[2] 30.15 
*END

*D_NET *7 0.000891286
*CONN
*P product[3] O
*I *893:X O *D sky130_fd_sc_hd__buf_2
*CAP
1 product[3] 0.000445643
2 *893:X 0.000445643
*RES
1 *893:X product[3] 18.5541 
*END

*D_NET *8 0.000835182
*CONN
*P product[4] O
*I *894:X O *D sky130_fd_sc_hd__buf_2
*CAP
1 product[4] 0.000404308
2 *894:X 0.000404308
3 product[4] *894:A 2.65667e-05
*RES
1 *894:X product[4] 23.9012 
*END

*D_NET *9 0.00134722
*CONN
*P product[5] O
*I *895:X O *D sky130_fd_sc_hd__buf_2
*CAP
1 product[5] 0.000548256
2 *895:X 0.000548256
3 product[5] *889:A 0.000250708
*RES
1 *895:X product[5] 29.0447 
*END

*D_NET *10 0.00124772
*CONN
*P product[6] O
*I *896:X O *D sky130_fd_sc_hd__buf_2
*CAP
1 product[6] 0.000536116
2 *896:X 0.000536116
3 product[6] *199:11 0.000175485
*RES
1 *896:X product[6] 27.5019 
*END

*D_NET *11 0.00150184
*CONN
*P product[7] O
*I *897:X O *D sky130_fd_sc_hd__buf_2
*CAP
1 product[7] 0.000750918
2 *897:X 0.000750918
*RES
1 *897:X product[7] 32.2203 
*END

*D_NET *12 0.00124772
*CONN
*P ready O
*I *898:X O *D sky130_fd_sc_hd__buf_2
*CAP
1 ready 0.000536116
2 *898:X 0.000536116
3 ready *199:11 0.000175485
*RES
1 *898:X ready 27.5019 
*END

*D_NET *13 0.00116725
*CONN
*P reset I
*I *880:A I *D sky130_fd_sc_hd__clkbuf_2
*CAP
1 reset 0.000497891
2 *880:A 0.000497891
3 *880:A *185:13 0.000171473
4 *3:8 *880:A 0
*RES
1 reset *880:A 27.6441 
*END

*D_NET *14 0.00132278
*CONN
*P start I
*I *882:A I *D sky130_fd_sc_hd__dlymetal6s2s_1
*CAP
1 start 0.000438483
2 *882:A 0.000438483
3 *882:A *897:A 0.000273916
4 *882:A *192:11 0.000171899
*RES
1 start *882:A 27.3654 
*END

*D_NET *15 0.000640107
*CONN
*P word0[0] I
*I *883:A I *D sky130_fd_sc_hd__dlymetal6s2s_1
*CAP
1 word0[0] 0.000320054
2 *883:A 0.000320054
*RES
1 word0[0] *883:A 20.6632 
*END

*D_NET *16 0.0018185
*CONN
*P word0[1] I
*I *884:A I *D sky130_fd_sc_hd__clkbuf_1
*CAP
1 word0[1] 0.000128539
2 *884:A 0.000210877
3 *16:12 0.000474587
4 *16:11 0.000392249
5 *16:12 *18:11 0.00061225
*RES
1 word0[1] *16:11 17.7892 
2 *16:11 *16:12 683.75 
3 *16:12 *884:A 23.6585 
*END

*D_NET *17 0.000620542
*CONN
*P word0[2] I
*I *885:A I *D sky130_fd_sc_hd__clkbuf_1
*CAP
1 word0[2] 0.000310271
2 *885:A 0.000310271
*RES
1 word0[2] *885:A 20.6632 
*END

*D_NET *18 0.00781971
*CONN
*P word0[3] I
*I *886:A I *D sky130_fd_sc_hd__clkbuf_1
*CAP
1 word0[3] 0.000983163
2 *886:A 0.000192707
3 *18:11 0.000963584
4 *18:10 0.00175404
5 *886:A *137:25 0.000159459
6 *18:10 *820:A 0
7 *18:10 *832:A 0.000127179
8 *18:10 *857:RESET_B 8.88017e-06
9 *18:10 *137:43 0
10 *18:10 *183:46 0.000212225
11 *18:11 *35:8 0.00132272
12 *18:11 *147:8 0.000953918
13 *18:11 *187:65 0.000372256
14 *4:11 *18:10 0.000157319
15 *16:12 *18:11 0.00061225
*RES
1 word0[3] *18:10 42.6072 
2 *18:10 *18:11 2584.34 
3 *18:11 *886:A 24.7677 
*END

*D_NET *19 0.00119748
*CONN
*P word1[0] I
*I *887:A I *D sky130_fd_sc_hd__clkbuf_1
*CAP
1 word1[0] 0.00045999
2 *887:A 0.00045999
3 *887:A *185:13 0.000277502
*RES
1 word1[0] *887:A 26.9501 
*END

*D_NET *20 0.00049903
*CONN
*P word1[1] I
*I *888:A I *D sky130_fd_sc_hd__dlymetal6s2s_1
*CAP
1 word1[1] 0.000239028
2 *888:A 0.000239028
3 *888:A *198:11 2.09735e-05
*RES
1 word1[1] *888:A 19.0022 
*END

*D_NET *21 0.0010818
*CONN
*P word1[2] I
*I *889:A I *D sky130_fd_sc_hd__dlymetal6s2s_1
*CAP
1 word1[2] 0.000415546
2 *889:A 0.000415546
3 product[5] *889:A 0.000250708
*RES
1 word1[2] *889:A 27.2232 
*END

*D_NET *22 0.000802337
*CONN
*P word1[3] I
*I *881:A I *D sky130_fd_sc_hd__clkbuf_1
*CAP
1 word1[3] 0.000401169
2 *881:A 0.000401169
3 *881:A *185:6 0
*RES
1 word1[3] *881:A 21.3844 
*END

*D_NET *23 0.000737931
*CONN
*I *735:A1 I *D sky130_fd_sc_hd__a22o_1
*I *851:X O *D sky130_fd_sc_hd__mux2_1
*CAP
1 *735:A1 0.000319329
2 *851:X 0.000319329
3 *735:A1 *851:A0 9.92725e-05
*RES
1 *851:X *735:A1 23.6826 
*END

*D_NET *24 0.00123772
*CONN
*I *732:A1 I *D sky130_fd_sc_hd__a22o_1
*I *853:X O *D sky130_fd_sc_hd__mux2_1
*CAP
1 *732:A1 0.000490462
2 *853:X 0.000490462
3 *732:A1 *724:B2 2.41483e-05
4 *732:A1 *876:CLK 0
5 *732:A1 *30:17 7.48797e-05
6 *732:A1 *193:12 0.000157767
7 *732:A1 *197:8 0
*RES
1 *853:X *732:A1 39.192 
*END

*D_NET *25 0.00143276
*CONN
*I *729:A1 I *D sky130_fd_sc_hd__a22o_1
*I *850:X O *D sky130_fd_sc_hd__mux2_1
*CAP
1 *729:A1 0.000504787
2 *850:X 0.000504787
3 *729:A1 *729:B1 0.000313186
4 *729:A1 *765:B1 1.4106e-05
5 *729:A1 *75:17 9.58949e-05
*RES
1 *850:X *729:A1 27.0103 
*END

*D_NET *26 0.00122409
*CONN
*I *757:A1 I *D sky130_fd_sc_hd__a22o_1
*I *855:X O *D sky130_fd_sc_hd__mux2_1
*CAP
1 *757:A1 0.000380625
2 *855:X 0.000380625
3 *757:A1 *719:A 1.9101e-05
4 *757:A1 *748:B1 0.00021218
5 *757:A1 *757:B1 1.78942e-05
6 *757:A1 *757:B2 6.3657e-05
7 *757:A1 *761:B2 3.1218e-05
8 *757:A1 *157:19 0
9 *757:A1 *159:17 0
10 *757:A1 *199:16 0
11 *877:A *757:A1 0.000118792
*RES
1 *855:X *757:A1 37.5633 
*END

*D_NET *27 0.000572932
*CONN
*I *754:A1 I *D sky130_fd_sc_hd__a22o_1
*I *848:X O *D sky130_fd_sc_hd__mux2_1
*CAP
1 *754:A1 0.000238503
2 *848:X 0.000238503
3 *754:A1 *75:8 0
4 *3:8 *754:A1 9.59254e-05
*RES
1 *848:X *754:A1 33.4828 
*END

*D_NET *28 0.00159469
*CONN
*I *751:A1 I *D sky130_fd_sc_hd__a22o_1
*I *849:X O *D sky130_fd_sc_hd__mux2_1
*CAP
1 *751:A1 0.000572938
2 *849:X 0.000572938
3 *751:A1 *715:A3 0.000309709
4 *751:A1 *751:B2 9.7734e-05
5 *751:A1 *866:RESET_B 0
6 *751:A1 *75:8 4.13703e-05
7 *751:A1 *172:35 0
8 *3:8 *751:A1 0
*RES
1 *849:X *751:A1 40.3012 
*END

*D_NET *29 0.00447635
*CONN
*I *718:B I *D sky130_fd_sc_hd__or2_1
*I *722:B I *D sky130_fd_sc_hd__and2_1
*I *854:A0 I *D sky130_fd_sc_hd__mux2_1
*I *852:A0 I *D sky130_fd_sc_hd__mux2_1
*I *717:X O *D sky130_fd_sc_hd__clkbuf_1
*CAP
1 *718:B 0.000614271
2 *722:B 0
3 *854:A0 0.000145489
4 *852:A0 0.000282357
5 *717:X 0
6 *29:18 0.000182867
7 *29:6 0.000505476
8 *29:4 0.000800013
9 *718:B *848:A1 2.07503e-05
10 *718:B *154:13 0.000452552
11 *718:B *195:9 0.00017339
12 *852:A0 *765:B1 0.000118485
13 *852:A0 *878:A 0
14 *852:A0 *162:21 0.000253119
15 *854:A0 *722:A 4.63091e-05
16 *854:A0 *854:S 0.00011818
17 *854:A0 *160:9 0.000113197
18 *854:A0 *163:16 0.000159535
19 *29:6 *765:A3 0
20 *29:6 *765:B1 0.000192167
21 *29:6 *798:B1 0.00015662
22 *29:6 *878:A 0
23 *29:6 *123:16 9.62085e-05
24 *29:18 *723:A 2.41274e-06
25 *29:18 *163:16 4.29497e-05
*RES
1 *717:X *29:4 9.24915 
2 *29:4 *29:6 10.4845 
3 *29:6 *852:A0 19.4928 
4 *29:6 *29:18 5.778 
5 *29:18 *854:A0 15.5186 
6 *29:18 *722:B 9.24915 
7 *29:4 *718:B 21.8603 
*END

*D_NET *30 0.0097636
*CONN
*I *761:B2 I *D sky130_fd_sc_hd__a22o_1
*I *849:S I *D sky130_fd_sc_hd__mux2_1
*I *848:S I *D sky130_fd_sc_hd__mux2_1
*I *855:S I *D sky130_fd_sc_hd__mux2_1
*I *850:S I *D sky130_fd_sc_hd__mux2_1
*I *724:B2 I *D sky130_fd_sc_hd__a22o_1
*I *853:S I *D sky130_fd_sc_hd__mux2_1
*I *851:S I *D sky130_fd_sc_hd__mux2_1
*I *723:X O *D sky130_fd_sc_hd__buf_2
*CAP
1 *761:B2 0.000334647
2 *849:S 0.000238593
3 *848:S 0
4 *855:S 0.000111545
5 *850:S 0
6 *724:B2 0.000211238
7 *853:S 0
8 *851:S 0.00012926
9 *723:X 5.65174e-05
10 *30:56 0.000291031
11 *30:46 0.000234607
12 *30:43 0.000518084
13 *30:17 0.000232817
14 *30:16 0.000435087
15 *30:11 0.000423425
16 *30:7 0.000472463
17 *724:B2 *724:A2 0.000361532
18 *724:B2 *724:B1 3.16131e-05
19 *724:B2 *850:A0 4.05678e-05
20 *724:B2 *876:D 4.95146e-05
21 *761:B2 *715:A1 0.000125461
22 *761:B2 *761:A1 6.73186e-05
23 *761:B2 *157:19 0
24 *761:B2 *159:17 8.55944e-05
25 *849:S *715:A3 0.00090196
26 *849:S *848:A0 1.88422e-05
27 *849:S *848:A1 9.81698e-05
28 *849:S *849:A0 2.78496e-05
29 *849:S *849:A1 6.64392e-05
30 *851:S *714:B 8.18934e-05
31 *851:S *852:A1 0.000125665
32 *851:S *193:12 0.000386824
33 *851:S *197:8 4.33056e-05
34 *855:S *727:A 1.64983e-05
35 *855:S *751:A2 0.000158651
36 *855:S *157:19 4.06402e-05
37 *30:7 *165:100 2.41274e-06
38 *30:11 *714:D 0.000208606
39 *30:11 *723:A 0.000149244
40 *30:11 *724:A2 0.00010534
41 *30:11 *876:CLK 0.000130268
42 *30:11 *75:17 0.000206696
43 *30:11 *154:13 3.31645e-05
44 *30:11 *159:17 1.67286e-05
45 *30:11 *165:100 0.000395381
46 *30:16 *724:A2 0.000183661
47 *30:16 *850:A0 4.0508e-05
48 *30:16 *853:A1 1.0348e-05
49 *30:16 *198:16 1.35449e-05
50 *30:16 *199:16 1.03594e-05
51 *30:17 *850:A0 4.89251e-05
52 *30:17 *853:A0 1.80176e-05
53 *30:17 *853:A1 6.46815e-05
54 *30:43 *715:A1 1.37421e-05
55 *30:43 *154:13 3.21615e-05
56 *30:43 *159:17 2.03651e-05
57 *30:46 *715:A3 0.000510995
58 *30:46 *848:A1 0.000512905
59 *30:56 *715:A3 0.000250405
60 *30:56 *848:A1 0.000237238
61 *732:A1 *724:B2 2.41483e-05
62 *732:A1 *30:17 7.48797e-05
63 *757:A1 *761:B2 3.1218e-05
*RES
1 *723:X *30:7 14.4725 
2 *30:7 *30:11 17.8547 
3 *30:11 *30:16 12.9083 
4 *30:16 *30:17 3.49641 
5 *30:17 *851:S 25.0642 
6 *30:17 *853:S 9.24915 
7 *30:16 *724:B2 16.6519 
8 *30:11 *850:S 9.24915 
9 *30:7 *30:43 2.6625 
10 *30:43 *30:46 10.2148 
11 *30:46 *855:S 21.3269 
12 *30:46 *30:56 2.94181 
13 *30:56 *848:S 9.24915 
14 *30:56 *849:S 19.4008 
15 *30:43 *761:B2 22.8853 
*END

*D_NET *31 0.00250329
*CONN
*I *854:A1 I *D sky130_fd_sc_hd__mux2_1
*I *842:X O *D sky130_fd_sc_hd__clkbuf_1
*CAP
1 *854:A1 0.000911665
2 *842:X 0.000911665
3 *854:A1 *841:A 1.92926e-05
4 *854:A1 *842:A 0.000105008
5 *854:A1 *162:8 0.000125788
6 *854:A1 *163:16 8.28952e-05
7 *854:A1 *163:22 0.000135627
8 *854:A1 *192:12 0.000211346
*RES
1 *842:X *854:A1 47.9235 
*END

*D_NET *32 0.000823644
*CONN
*I *764:A I *D sky130_fd_sc_hd__inv_2
*I *854:X O *D sky130_fd_sc_hd__mux2_1
*CAP
1 *764:A 0.000285108
2 *854:X 0.000285108
3 *764:A *796:A 5.5369e-05
4 *764:A *798:A4 0
5 *764:A *854:S 1.43983e-05
6 *764:A *53:14 0.000183661
*RES
1 *854:X *764:A 34.2062 
*END

*D_NET *33 0.00122539
*CONN
*I *852:A1 I *D sky130_fd_sc_hd__mux2_1
*I *845:X O *D sky130_fd_sc_hd__clkbuf_1
*CAP
1 *852:A1 0.000271975
2 *845:X 0.000271975
3 *852:A1 *714:B 0.000378174
4 *852:A1 *844:A 2.65667e-05
5 *852:A1 *193:12 0.00015104
6 *851:S *852:A1 0.000125665
*RES
1 *845:X *852:A1 37.113 
*END

*D_NET *34 0.00105272
*CONN
*I *856:RESET_B I *D sky130_fd_sc_hd__dfrtp_4
*I *840:X O *D sky130_fd_sc_hd__clkbuf_1
*CAP
1 *856:RESET_B 0.000335559
2 *840:X 0.000335559
3 *856:RESET_B *840:A 5.82003e-05
4 *856:RESET_B *846:A 5.04829e-06
5 *856:RESET_B *163:16 0.000170951
6 *856:RESET_B *169:7 0.000108176
7 *856:RESET_B *181:10 3.92275e-05
*RES
1 *840:X *856:RESET_B 25.8804 
*END

*D_NET *35 0.00806085
*CONN
*I *857:RESET_B I *D sky130_fd_sc_hd__dfrtp_1
*I *836:X O *D sky130_fd_sc_hd__clkbuf_1
*CAP
1 *857:RESET_B 0.00173085
2 *836:X 0.000451842
3 *35:8 0.00211091
4 *35:7 0.000831903
5 *857:RESET_B *826:A3 0.000274579
6 *857:RESET_B *826:B1 1.01044e-05
7 *857:RESET_B *893:A 2.32834e-05
8 *857:RESET_B *183:11 6.08467e-05
9 *857:RESET_B *183:46 5.08751e-05
10 *857:RESET_B *186:37 5.56873e-05
11 *35:7 *752:A 1.03403e-05
12 *35:7 *836:A 0.00014319
13 *35:8 *187:65 0.00097484
14 *18:10 *857:RESET_B 8.88017e-06
15 *18:11 *35:8 0.00132272
*RES
1 *836:X *35:7 26.4315 
2 *35:7 *35:8 1494.98 
3 *35:8 *857:RESET_B 41.5729 
*END

*D_NET *36 0.0017365
*CONN
*I *858:RESET_B I *D sky130_fd_sc_hd__dfrtp_1
*I *832:X O *D sky130_fd_sc_hd__clkbuf_1
*CAP
1 *858:RESET_B 0.000570592
2 *832:X 0.000570592
3 *858:RESET_B *820:A 8.89091e-05
4 *858:RESET_B *821:A 0.0002817
5 *858:RESET_B *135:11 0.000159638
6 *858:RESET_B *184:8 6.50727e-05
*RES
1 *832:X *858:RESET_B 24.8866 
*END

*D_NET *37 0.000828453
*CONN
*I *859:RESET_B I *D sky130_fd_sc_hd__dfrtp_4
*I *828:X O *D sky130_fd_sc_hd__clkbuf_1
*CAP
1 *859:RESET_B 0.000303361
2 *828:X 0.000303361
3 *859:RESET_B *173:9 2.72636e-05
4 *859:RESET_B *173:32 9.90332e-05
5 *859:RESET_B *185:6 9.54356e-05
*RES
1 *828:X *859:RESET_B 24.7712 
*END

*D_NET *38 0.000178263
*CONN
*I *860:RESET_B I *D sky130_fd_sc_hd__dfrtp_1
*I *821:X O *D sky130_fd_sc_hd__clkbuf_1
*CAP
1 *860:RESET_B 8.91314e-05
2 *821:X 8.91314e-05
*RES
1 *821:X *860:RESET_B 20.0811 
*END

*D_NET *39 0.000689025
*CONN
*I *861:RESET_B I *D sky130_fd_sc_hd__dfrtp_4
*I *816:X O *D sky130_fd_sc_hd__clkbuf_1
*CAP
1 *861:RESET_B 0.00025478
2 *816:X 0.00025478
3 *861:RESET_B *810:B 2.52414e-06
4 *861:RESET_B *861:D 9.90116e-05
5 *861:RESET_B *896:A 6.50586e-05
6 *861:RESET_B *166:67 1.287e-05
*RES
1 *816:X *861:RESET_B 24.2166 
*END

*D_NET *40 0.000611966
*CONN
*I *862:RESET_B I *D sky130_fd_sc_hd__dfrtp_2
*I *809:X O *D sky130_fd_sc_hd__clkbuf_1
*CAP
1 *862:RESET_B 0.000221013
2 *809:X 0.000221013
3 *862:RESET_B *896:A 4.44611e-05
4 *862:RESET_B *129:16 7.47481e-05
5 *862:RESET_B *166:72 5.07314e-05
*RES
1 *809:X *862:RESET_B 23.2439 
*END

*D_NET *41 0.000689692
*CONN
*I *863:RESET_B I *D sky130_fd_sc_hd__dfrtp_1
*I *802:X O *D sky130_fd_sc_hd__clkbuf_1
*CAP
1 *863:RESET_B 0.000142791
2 *802:X 0.000142791
3 *863:RESET_B *863:D 3.14978e-05
4 *863:RESET_B *863:CLK 3.59819e-05
5 *863:RESET_B *189:9 0.00031607
6 *863:RESET_B *191:8 2.05605e-05
*RES
1 *802:X *863:RESET_B 23.4932 
*END

*D_NET *42 0.00047372
*CONN
*I *864:RESET_B I *D sky130_fd_sc_hd__dfrtp_2
*I *763:X O *D sky130_fd_sc_hd__clkbuf_1
*CAP
1 *864:RESET_B 0.000136827
2 *763:X 0.000136827
3 *864:RESET_B *763:A 0.000169984
4 *864:RESET_B *800:A 3.00829e-05
*RES
1 *763:X *864:RESET_B 22.0503 
*END

*D_NET *43 0.000373268
*CONN
*I *865:RESET_B I *D sky130_fd_sc_hd__dfrtp_1
*I *760:X O *D sky130_fd_sc_hd__clkbuf_1
*CAP
1 *865:RESET_B 0.000103216
2 *760:X 0.000103216
3 *865:RESET_B *719:A 0.000166836
4 *865:RESET_B *199:16 0
*RES
1 *760:X *865:RESET_B 21.3269 
*END

*D_NET *44 0.00133575
*CONN
*I *866:RESET_B I *D sky130_fd_sc_hd__dfrtp_1
*I *756:X O *D sky130_fd_sc_hd__clkbuf_1
*CAP
1 *866:RESET_B 0.00038558
2 *756:X 0.00038558
3 *866:RESET_B *755:A 6.4309e-05
4 *866:RESET_B *80:33 0.000465817
5 *866:RESET_B *171:7 2.8779e-05
6 *866:RESET_B *172:35 5.68225e-06
7 *751:A1 *866:RESET_B 0
*RES
1 *756:X *866:RESET_B 30.2737 
*END

*D_NET *45 0.00025504
*CONN
*I *867:RESET_B I *D sky130_fd_sc_hd__dfrtp_2
*I *753:X O *D sky130_fd_sc_hd__clkbuf_1
*CAP
1 *867:RESET_B 0.00012752
2 *753:X 0.00012752
*RES
1 *753:X *867:RESET_B 21.3269 
*END

*D_NET *46 0.00046673
*CONN
*I *868:RESET_B I *D sky130_fd_sc_hd__dfrtp_2
*I *750:X O *D sky130_fd_sc_hd__clkbuf_1
*CAP
1 *868:RESET_B 0.000172748
2 *750:X 0.000172748
3 *868:RESET_B *750:A 3.34802e-05
4 *868:RESET_B *185:6 8.77537e-05
*RES
1 *750:X *868:RESET_B 23.4032 
*END

*D_NET *47 0.00190858
*CONN
*I *869:RESET_B I *D sky130_fd_sc_hd__dfrtp_2
*I *747:X O *D sky130_fd_sc_hd__clkbuf_1
*CAP
1 *869:RESET_B 0.000373415
2 *747:X 0.000373415
3 *869:RESET_B *747:A 0.000604408
4 *869:RESET_B *748:A1 0.000102329
5 *869:RESET_B *798:B1 0
6 *869:RESET_B *879:A 0.00018821
7 *869:RESET_B *80:29 8.58902e-06
8 *869:RESET_B *158:8 0.00025821
*RES
1 *747:X *869:RESET_B 30.869 
*END

*D_NET *48 0.000855794
*CONN
*I *870:RESET_B I *D sky130_fd_sc_hd__dfrtp_1
*I *744:X O *D sky130_fd_sc_hd__clkbuf_1
*CAP
1 *870:RESET_B 0.000358974
2 *744:X 0.000358974
3 *870:RESET_B *744:A 5.04829e-06
4 *870:RESET_B *745:B1 6.05974e-05
5 *870:RESET_B *90:25 0
6 *870:RESET_B *174:15 3.03785e-05
7 *870:RESET_B *174:18 4.18228e-05
8 *870:RESET_B *175:30 0
*RES
1 *744:X *870:RESET_B 26.9814 
*END

*D_NET *49 0.000366796
*CONN