* NGSPICE file created from asmd_multiplier.ext - technology: sky130A

* Black-box entry subcircuit for sky130_fd_sc_hd__tapvpwrvgnd_1 abstract view
.subckt sky130_fd_sc_hd__tapvpwrvgnd_1 VGND VPWR
.ends

* Black-box entry subcircuit for sky130_fd_sc_hd__decap_12 abstract view
.subckt sky130_fd_sc_hd__decap_12 VGND VNB VPB VPWR
.ends

* Black-box entry subcircuit for sky130_fd_sc_hd__decap_6 abstract view
.subckt sky130_fd_sc_hd__decap_6 VGND VNB VPB VPWR
.ends

* Black-box entry subcircuit for sky130_fd_sc_hd__fill_1 abstract view
.subckt sky130_fd_sc_hd__fill_1 VGND VNB VPB VPWR
.ends

* Black-box entry subcircuit for sky130_fd_sc_hd__dfrtp_1 abstract view
.subckt sky130_fd_sc_hd__dfrtp_1 CLK D RESET_B VGND VNB VPB VPWR Q
.ends

* Black-box entry subcircuit for sky130_fd_sc_hd__decap_4 abstract view
.subckt sky130_fd_sc_hd__decap_4 VGND VNB VPB VPWR
.ends

* Black-box entry subcircuit for sky130_fd_sc_hd__mux2_1 abstract view
.subckt sky130_fd_sc_hd__mux2_1 A0 A1 S VGND VNB VPB VPWR X
.ends

* Black-box entry subcircuit for sky130_fd_sc_hd__decap_8 abstract view
.subckt sky130_fd_sc_hd__decap_8 VGND VNB VPB VPWR
.ends

* Black-box entry subcircuit for sky130_fd_sc_hd__inv_2 abstract view
.subckt sky130_fd_sc_hd__inv_2 A VGND VNB VPB VPWR Y
.ends

* Black-box entry subcircuit for sky130_fd_sc_hd__fill_2 abstract view
.subckt sky130_fd_sc_hd__fill_2 VGND VNB VPB VPWR
.ends

* Black-box entry subcircuit for sky130_fd_sc_hd__clkbuf_1 abstract view
.subckt sky130_fd_sc_hd__clkbuf_1 A VGND VNB VPB VPWR X
.ends

* Black-box entry subcircuit for sky130_fd_sc_hd__dfrtp_4 abstract view
.subckt sky130_fd_sc_hd__dfrtp_4 CLK D RESET_B VGND VNB VPB VPWR Q
.ends

* Black-box entry subcircuit for sky130_fd_sc_hd__decap_3 abstract view
.subckt sky130_fd_sc_hd__decap_3 VGND VNB VPB VPWR
.ends

* Black-box entry subcircuit for sky130_fd_sc_hd__a32o_1 abstract view
.subckt sky130_fd_sc_hd__a32o_1 A1 A2 A3 B1 B2 VGND VNB VPB VPWR X
.ends

* Black-box entry subcircuit for sky130_fd_sc_hd__a22o_1 abstract view
.subckt sky130_fd_sc_hd__a22o_1 A1 A2 B1 B2 VGND VNB VPB VPWR X
.ends

* Black-box entry subcircuit for sky130_fd_sc_hd__buf_2 abstract view
.subckt sky130_fd_sc_hd__buf_2 A VGND VNB VPB VPWR X
.ends

* Black-box entry subcircuit for sky130_fd_sc_hd__or2_1 abstract view
.subckt sky130_fd_sc_hd__or2_1 A B VGND VNB VPB VPWR X
.ends

* Black-box entry subcircuit for sky130_fd_sc_hd__o21ai_1 abstract view
.subckt sky130_fd_sc_hd__o21ai_1 A1 A2 B1 VGND VNB VPB VPWR Y
.ends

* Black-box entry subcircuit for sky130_fd_sc_hd__or4b_1 abstract view
.subckt sky130_fd_sc_hd__or4b_1 A B C D_N VGND VNB VPB VPWR X
.ends

* Black-box entry subcircuit for sky130_fd_sc_hd__clkbuf_2 abstract view
.subckt sky130_fd_sc_hd__clkbuf_2 A VGND VNB VPB VPWR X
.ends

* Black-box entry subcircuit for sky130_fd_sc_hd__nand2_1 abstract view
.subckt sky130_fd_sc_hd__nand2_1 A B VGND VNB VPB VPWR Y
.ends

* Black-box entry subcircuit for sky130_fd_sc_hd__nor2_2 abstract view
.subckt sky130_fd_sc_hd__nor2_2 A B VGND VNB VPB VPWR Y
.ends

* Black-box entry subcircuit for sky130_fd_sc_hd__a31o_1 abstract view
.subckt sky130_fd_sc_hd__a31o_1 A1 A2 A3 B1 VGND VNB VPB VPWR X
.ends

* Black-box entry subcircuit for sky130_fd_sc_hd__clkbuf_16 abstract view
.subckt sky130_fd_sc_hd__clkbuf_16 A VGND VNB VPB VPWR X
.ends

* Black-box entry subcircuit for sky130_fd_sc_hd__and3_1 abstract view
.subckt sky130_fd_sc_hd__and3_1 A B C VGND VNB VPB VPWR X
.ends

* Black-box entry subcircuit for sky130_fd_sc_hd__or3_1 abstract view
.subckt sky130_fd_sc_hd__or3_1 A B C VGND VNB VPB VPWR X
.ends

* Black-box entry subcircuit for sky130_fd_sc_hd__o41a_1 abstract view
.subckt sky130_fd_sc_hd__o41a_1 A1 A2 A3 A4 B1 VGND VNB VPB VPWR X
.ends

* Black-box entry subcircuit for sky130_fd_sc_hd__or4_1 abstract view
.subckt sky130_fd_sc_hd__or4_1 A B C D VGND VNB VPB VPWR X
.ends

* Black-box entry subcircuit for sky130_fd_sc_hd__o2bb2a_1 abstract view
.subckt sky130_fd_sc_hd__o2bb2a_1 A1_N A2_N B1 B2 VGND VNB VPB VPWR X
.ends

* Black-box entry subcircuit for sky130_fd_sc_hd__o22a_1 abstract view
.subckt sky130_fd_sc_hd__o22a_1 A1 A2 B1 B2 VGND VNB VPB VPWR X
.ends

* Black-box entry subcircuit for sky130_fd_sc_hd__o22ai_1 abstract view
.subckt sky130_fd_sc_hd__o22ai_1 A1 A2 B1 B2 VGND VNB VPB VPWR Y
.ends

* Black-box entry subcircuit for sky130_fd_sc_hd__o32a_1 abstract view
.subckt sky130_fd_sc_hd__o32a_1 A1 A2 A3 B1 B2 VGND VNB VPB VPWR X
.ends

* Black-box entry subcircuit for sky130_fd_sc_hd__a41o_1 abstract view
.subckt sky130_fd_sc_hd__a41o_1 A1 A2 A3 A4 B1 VGND VNB VPB VPWR X
.ends

* Black-box entry subcircuit for sky130_fd_sc_hd__dlymetal6s2s_1 abstract view
.subckt sky130_fd_sc_hd__dlymetal6s2s_1 A VGND VNB VPB VPWR X
.ends

* Black-box entry subcircuit for sky130_fd_sc_hd__o221a_1 abstract view
.subckt sky130_fd_sc_hd__o221a_1 A1 A2 B1 B2 C1 VGND VNB VPB VPWR X
.ends

* Black-box entry subcircuit for sky130_fd_sc_hd__a221oi_1 abstract view
.subckt sky130_fd_sc_hd__a221oi_1 A1 A2 B1 B2 C1 VGND VNB VPB VPWR Y
.ends

* Black-box entry subcircuit for sky130_fd_sc_hd__diode_2 abstract view
.subckt sky130_fd_sc_hd__diode_2 DIODE VGND VNB VPB VPWR
.ends

* Black-box entry subcircuit for sky130_fd_sc_hd__dfrtp_2 abstract view
.subckt sky130_fd_sc_hd__dfrtp_2 CLK D RESET_B VGND VNB VPB VPWR Q
.ends

* Black-box entry subcircuit for sky130_fd_sc_hd__and2_1 abstract view
.subckt sky130_fd_sc_hd__and2_1 A B VGND VNB VPB VPWR X
.ends

.subckt asmd_multiplier VGND VPWR clk product[0] product[1] product[2] product[3]
+ product[4] product[5] product[6] product[7] ready reset start word0[0] word0[1]
+ word0[2] word0[3] word1[0] word1[1] word1[2] word1[3]
XTAP_188 VGND VPWR sky130_fd_sc_hd__tapvpwrvgnd_1
XTAP_177 VGND VPWR sky130_fd_sc_hd__tapvpwrvgnd_1
XTAP_199 VGND VPWR sky130_fd_sc_hd__tapvpwrvgnd_1
XFILLER_52_29 VGND VGND VPWR VPWR sky130_fd_sc_hd__decap_12
XFILLER_22_133 VGND VGND VPWR VPWR sky130_fd_sc_hd__decap_6
XFILLER_45_225 VGND VGND VPWR VPWR sky130_fd_sc_hd__decap_12
XFILLER_13_111 VGND VGND VPWR VPWR sky130_fd_sc_hd__fill_1
XFILLER_26_41 VGND VGND VPWR VPWR sky130_fd_sc_hd__decap_12
XFILLER_26_85 VGND VGND VPWR VPWR sky130_fd_sc_hd__decap_12
X_294_ _295_/CLK _294_/D _184_/X VGND VGND VPWR VPWR _294_/Q sky130_fd_sc_hd__dfrtp_1
XFILLER_9_137 VGND VGND VPWR VPWR sky130_fd_sc_hd__decap_12
XFILLER_36_236 VGND VGND VPWR VPWR sky130_fd_sc_hd__decap_4
XFILLER_51_217 VGND VGND VPWR VPWR sky130_fd_sc_hd__decap_6
XFILLER_59_317 VGND VGND VPWR VPWR sky130_fd_sc_hd__decap_12
XFILLER_63_39 VGND VGND VPWR VPWR sky130_fd_sc_hd__decap_12
XFILLER_2_357 VGND VGND VPWR VPWR sky130_fd_sc_hd__decap_6
XFILLER_12_65 VGND VGND VPWR VPWR sky130_fd_sc_hd__decap_12
XFILLER_37_51 VGND VGND VPWR VPWR sky130_fd_sc_hd__decap_4
XFILLER_41_261 VGND VGND VPWR VPWR sky130_fd_sc_hd__decap_12
XFILLER_33_239 VGND VGND VPWR VPWR sky130_fd_sc_hd__fill_1
XFILLER_33_228 VGND VGND VPWR VPWR sky130_fd_sc_hd__decap_4
XFILLER_26_280 VGND VGND VPWR VPWR sky130_fd_sc_hd__decap_12
X_277_ _295_/Q input6/X _283_/S VGND VGND VPWR VPWR _277_/X sky130_fd_sc_hd__mux2_1
XFILLER_56_309 VGND VGND VPWR VPWR sky130_fd_sc_hd__decap_12
XFILLER_64_353 VGND VGND VPWR VPWR sky130_fd_sc_hd__decap_8
XFILLER_49_361 VGND VGND VPWR VPWR sky130_fd_sc_hd__decap_12
XFILLER_32_283 VGND VGND VPWR VPWR sky130_fd_sc_hd__decap_12
XFILLER_20_401 VGND VGND VPWR VPWR sky130_fd_sc_hd__decap_6
XFILLER_59_169 VGND VGND VPWR VPWR sky130_fd_sc_hd__decap_12
XFILLER_59_125 VGND VGND VPWR VPWR sky130_fd_sc_hd__decap_12
XFILLER_15_217 VGND VGND VPWR VPWR sky130_fd_sc_hd__decap_6
X_200_ _297_/Q VGND VGND VPWR VPWR _200_/Y sky130_fd_sc_hd__inv_2
XFILLER_7_405 VGND VGND VPWR VPWR sky130_fd_sc_hd__fill_2
XFILLER_38_309 VGND VGND VPWR VPWR sky130_fd_sc_hd__decap_12
XFILLER_2_165 VGND VGND VPWR VPWR sky130_fd_sc_hd__decap_12
XFILLER_2_121 VGND VGND VPWR VPWR sky130_fd_sc_hd__decap_12
XFILLER_48_83 VGND VGND VPWR VPWR sky130_fd_sc_hd__fill_1
XFILLER_0_57 VGND VGND VPWR VPWR sky130_fd_sc_hd__decap_4
XFILLER_9_55 VGND VGND VPWR VPWR sky130_fd_sc_hd__fill_1
XFILLER_50_3 VGND VGND VPWR VPWR sky130_fd_sc_hd__decap_12
XFILLER_56_139 VGND VGND VPWR VPWR sky130_fd_sc_hd__fill_1
XFILLER_52_389 VGND VGND VPWR VPWR sky130_fd_sc_hd__decap_12
XFILLER_52_345 VGND VGND VPWR VPWR sky130_fd_sc_hd__decap_12
XFILLER_52_301 VGND VGND VPWR VPWR sky130_fd_sc_hd__decap_6
XFILLER_12_209 VGND VGND VPWR VPWR sky130_fd_sc_hd__decap_12
XFILLER_60_29 VGND VGND VPWR VPWR sky130_fd_sc_hd__decap_12
XFILLER_20_231 VGND VGND VPWR VPWR sky130_fd_sc_hd__fill_2
XFILLER_20_253 VGND VGND VPWR VPWR sky130_fd_sc_hd__decap_12
XFILLER_62_109 VGND VGND VPWR VPWR sky130_fd_sc_hd__decap_12
XFILLER_55_161 VGND VGND VPWR VPWR sky130_fd_sc_hd__decap_6
XFILLER_18_53 VGND VGND VPWR VPWR sky130_fd_sc_hd__decap_12
XFILLER_18_97 VGND VGND VPWR VPWR sky130_fd_sc_hd__decap_12
XFILLER_34_85 VGND VGND VPWR VPWR sky130_fd_sc_hd__decap_12
XFILLER_34_41 VGND VGND VPWR VPWR sky130_fd_sc_hd__decap_12
XTAP_507 VGND VPWR sky130_fd_sc_hd__tapvpwrvgnd_1
XFILLER_7_279 VGND VGND VPWR VPWR sky130_fd_sc_hd__fill_1
XFILLER_59_93 VGND VGND VPWR VPWR sky130_fd_sc_hd__decap_12
XTAP_529 VGND VPWR sky130_fd_sc_hd__tapvpwrvgnd_1
XTAP_518 VGND VPWR sky130_fd_sc_hd__tapvpwrvgnd_1
XFILLER_38_139 VGND VGND VPWR VPWR sky130_fd_sc_hd__fill_1
XFILLER_34_389 VGND VGND VPWR VPWR sky130_fd_sc_hd__decap_12
XFILLER_34_345 VGND VGND VPWR VPWR sky130_fd_sc_hd__decap_12
XFILLER_44_109 VGND VGND VPWR VPWR sky130_fd_sc_hd__decap_12
XFILLER_52_197 VGND VGND VPWR VPWR sky130_fd_sc_hd__decap_12
XFILLER_52_153 VGND VGND VPWR VPWR sky130_fd_sc_hd__decap_12
XFILLER_20_65 VGND VGND VPWR VPWR sky130_fd_sc_hd__decap_12
XFILLER_45_51 VGND VGND VPWR VPWR sky130_fd_sc_hd__decap_4
XFILLER_16_301 VGND VGND VPWR VPWR sky130_fd_sc_hd__decap_6
XFILLER_16_345 VGND VGND VPWR VPWR sky130_fd_sc_hd__decap_12
XFILLER_16_389 VGND VGND VPWR VPWR sky130_fd_sc_hd__decap_12
XFILLER_31_337 VGND VGND VPWR VPWR sky130_fd_sc_hd__decap_12
XTAP_348 VGND VPWR sky130_fd_sc_hd__tapvpwrvgnd_1
XTAP_337 VGND VPWR sky130_fd_sc_hd__tapvpwrvgnd_1
XFILLER_3_293 VGND VGND VPWR VPWR sky130_fd_sc_hd__decap_12
XTAP_304 VGND VPWR sky130_fd_sc_hd__tapvpwrvgnd_1
XTAP_315 VGND VPWR sky130_fd_sc_hd__tapvpwrvgnd_1
XTAP_326 VGND VPWR sky130_fd_sc_hd__tapvpwrvgnd_1
XTAP_359 VGND VPWR sky130_fd_sc_hd__tapvpwrvgnd_1
XFILLER_13_3 VGND VGND VPWR VPWR sky130_fd_sc_hd__decap_12
XFILLER_19_161 VGND VGND VPWR VPWR sky130_fd_sc_hd__decap_6
XFILLER_26_109 VGND VGND VPWR VPWR sky130_fd_sc_hd__decap_12
XFILLER_57_223 VGND VGND VPWR VPWR sky130_fd_sc_hd__fill_1
XFILLER_40_189 VGND VGND VPWR VPWR sky130_fd_sc_hd__decap_6
XFILLER_13_337 VGND VGND VPWR VPWR sky130_fd_sc_hd__decap_12
XFILLER_63_237 VGND VGND VPWR VPWR sky130_fd_sc_hd__decap_12
XFILLER_56_83 VGND VGND VPWR VPWR sky130_fd_sc_hd__fill_1
XFILLER_48_289 VGND VGND VPWR VPWR sky130_fd_sc_hd__decap_12
XFILLER_48_245 VGND VGND VPWR VPWR sky130_fd_sc_hd__decap_6
XFILLER_0_285 VGND VGND VPWR VPWR sky130_fd_sc_hd__decap_12
XFILLER_16_153 VGND VGND VPWR VPWR sky130_fd_sc_hd__decap_12
XFILLER_16_197 VGND VGND VPWR VPWR sky130_fd_sc_hd__decap_12
XFILLER_8_363 VGND VGND VPWR VPWR sky130_fd_sc_hd__fill_1
XTAP_178 VGND VPWR sky130_fd_sc_hd__tapvpwrvgnd_1
XTAP_167 VGND VPWR sky130_fd_sc_hd__tapvpwrvgnd_1
XTAP_156 VGND VPWR sky130_fd_sc_hd__tapvpwrvgnd_1
XTAP_145 VGND VPWR sky130_fd_sc_hd__tapvpwrvgnd_1
XTAP_134 VGND VPWR sky130_fd_sc_hd__tapvpwrvgnd_1
XTAP_189 VGND VPWR sky130_fd_sc_hd__tapvpwrvgnd_1
XFILLER_10_307 VGND VGND VPWR VPWR sky130_fd_sc_hd__fill_1
XFILLER_53_281 VGND VGND VPWR VPWR sky130_fd_sc_hd__decap_12
XFILLER_45_237 VGND VGND VPWR VPWR sky130_fd_sc_hd__decap_12
XFILLER_9_105 VGND VGND VPWR VPWR sky130_fd_sc_hd__decap_6
XFILLER_13_167 VGND VGND VPWR VPWR sky130_fd_sc_hd__fill_1
XFILLER_26_53 VGND VGND VPWR VPWR sky130_fd_sc_hd__decap_12
XFILLER_26_97 VGND VGND VPWR VPWR sky130_fd_sc_hd__decap_12
XFILLER_42_85 VGND VGND VPWR VPWR sky130_fd_sc_hd__decap_12
XFILLER_42_41 VGND VGND VPWR VPWR sky130_fd_sc_hd__decap_12
X_293_ _295_/CLK _293_/D _188_/X VGND VGND VPWR VPWR _293_/Q sky130_fd_sc_hd__dfrtp_1
XFILLER_9_149 VGND VGND VPWR VPWR sky130_fd_sc_hd__decap_12
XFILLER_3_57 VGND VGND VPWR VPWR sky130_fd_sc_hd__decap_12
XFILLER_36_248 VGND VGND VPWR VPWR sky130_fd_sc_hd__decap_4
XFILLER_36_226 VGND VGND VPWR VPWR sky130_fd_sc_hd__decap_4
XFILLER_59_329 VGND VGND VPWR VPWR sky130_fd_sc_hd__decap_6
XFILLER_50_251 VGND VGND VPWR VPWR sky130_fd_sc_hd__fill_1
XFILLER_35_281 VGND VGND VPWR VPWR sky130_fd_sc_hd__decap_12
XFILLER_35_270 VGND VGND VPWR VPWR sky130_fd_sc_hd__decap_8
XFILLER_27_259 VGND VGND VPWR VPWR sky130_fd_sc_hd__decap_12
XFILLER_12_77 VGND VGND VPWR VPWR sky130_fd_sc_hd__decap_6
XFILLER_53_51 VGND VGND VPWR VPWR sky130_fd_sc_hd__decap_4
XFILLER_41_273 VGND VGND VPWR VPWR sky130_fd_sc_hd__decap_6
X_276_ _294_/Q input5/X _283_/S VGND VGND VPWR VPWR _276_/X sky130_fd_sc_hd__mux2_1
XFILLER_26_292 VGND VGND VPWR VPWR sky130_fd_sc_hd__decap_12
XFILLER_49_373 VGND VGND VPWR VPWR sky130_fd_sc_hd__decap_12
XFILLER_1_391 VGND VGND VPWR VPWR sky130_fd_sc_hd__fill_1
XFILLER_64_365 VGND VGND VPWR VPWR sky130_fd_sc_hd__decap_12
XFILLER_64_321 VGND VGND VPWR VPWR sky130_fd_sc_hd__decap_12
XFILLER_17_281 VGND VGND VPWR VPWR sky130_fd_sc_hd__decap_12
XFILLER_32_295 VGND VGND VPWR VPWR sky130_fd_sc_hd__decap_12
XFILLER_32_251 VGND VGND VPWR VPWR sky130_fd_sc_hd__fill_1
XFILLER_59_137 VGND VGND VPWR VPWR sky130_fd_sc_hd__decap_12
XFILLER_58_29 VGND VGND VPWR VPWR sky130_fd_sc_hd__decap_12
XFILLER_23_240 VGND VGND VPWR VPWR sky130_fd_sc_hd__fill_1
XFILLER_2_177 VGND VGND VPWR VPWR sky130_fd_sc_hd__decap_12
XFILLER_2_133 VGND VGND VPWR VPWR sky130_fd_sc_hd__decap_6
XFILLER_64_83 VGND VGND VPWR VPWR sky130_fd_sc_hd__fill_1
XFILLER_61_335 VGND VGND VPWR VPWR sky130_fd_sc_hd__fill_1
XFILLER_46_365 VGND VGND VPWR VPWR sky130_fd_sc_hd__decap_12
XFILLER_46_321 VGND VGND VPWR VPWR sky130_fd_sc_hd__decap_12
X_259_ _267_/A VGND VGND VPWR VPWR _260_/A sky130_fd_sc_hd__clkbuf_1
XFILLER_14_251 VGND VGND VPWR VPWR sky130_fd_sc_hd__fill_1
XFILLER_43_3 VGND VGND VPWR VPWR sky130_fd_sc_hd__decap_12
XFILLER_49_181 VGND VGND VPWR VPWR sky130_fd_sc_hd__decap_12
XFILLER_52_357 VGND VGND VPWR VPWR sky130_fd_sc_hd__decap_6
XFILLER_20_265 VGND VGND VPWR VPWR sky130_fd_sc_hd__decap_12
XFILLER_43_335 VGND VGND VPWR VPWR sky130_fd_sc_hd__fill_1
XFILLER_28_365 VGND VGND VPWR VPWR sky130_fd_sc_hd__decap_12
XFILLER_28_321 VGND VGND VPWR VPWR sky130_fd_sc_hd__decap_12
XFILLER_18_65 VGND VGND VPWR VPWR sky130_fd_sc_hd__decap_12
XFILLER_50_41 VGND VGND VPWR VPWR sky130_fd_sc_hd__decap_12
XFILLER_34_97 VGND VGND VPWR VPWR sky130_fd_sc_hd__decap_12
XFILLER_34_53 VGND VGND VPWR VPWR sky130_fd_sc_hd__decap_12
XFILLER_7_225 VGND VGND VPWR VPWR sky130_fd_sc_hd__decap_12
XTAP_519 VGND VPWR sky130_fd_sc_hd__tapvpwrvgnd_1
XTAP_508 VGND VPWR sky130_fd_sc_hd__tapvpwrvgnd_1
XFILLER_50_85 VGND VGND VPWR VPWR sky130_fd_sc_hd__decap_12
XFILLER_46_195 VGND VGND VPWR VPWR sky130_fd_sc_hd__fill_1
XFILLER_34_357 VGND VGND VPWR VPWR sky130_fd_sc_hd__decap_6
XFILLER_57_405 VGND VGND VPWR VPWR sky130_fd_sc_hd__fill_2
XFILLER_52_121 VGND VGND VPWR VPWR sky130_fd_sc_hd__decap_12
XFILLER_25_335 VGND VGND VPWR VPWR sky130_fd_sc_hd__fill_1
XFILLER_52_165 VGND VGND VPWR VPWR sky130_fd_sc_hd__decap_12
XFILLER_20_77 VGND VGND VPWR VPWR sky130_fd_sc_hd__decap_6
XFILLER_31_349 VGND VGND VPWR VPWR sky130_fd_sc_hd__decap_12
XFILLER_31_305 VGND VGND VPWR VPWR sky130_fd_sc_hd__decap_12
XFILLER_28_173 VGND VGND VPWR VPWR sky130_fd_sc_hd__fill_1
XFILLER_16_357 VGND VGND VPWR VPWR sky130_fd_sc_hd__decap_6
XFILLER_61_51 VGND VGND VPWR VPWR sky130_fd_sc_hd__decap_4
XFILLER_39_405 VGND VGND VPWR VPWR sky130_fd_sc_hd__fill_2
XTAP_349 VGND VPWR sky130_fd_sc_hd__tapvpwrvgnd_1
XTAP_338 VGND VPWR sky130_fd_sc_hd__tapvpwrvgnd_1
XFILLER_3_261 VGND VGND VPWR VPWR sky130_fd_sc_hd__decap_12
XTAP_305 VGND VPWR sky130_fd_sc_hd__tapvpwrvgnd_1
XTAP_316 VGND VPWR sky130_fd_sc_hd__tapvpwrvgnd_1
XTAP_327 VGND VPWR sky130_fd_sc_hd__tapvpwrvgnd_1
XFILLER_34_121 VGND VGND VPWR VPWR sky130_fd_sc_hd__decap_12
XFILLER_57_279 VGND VGND VPWR VPWR sky130_fd_sc_hd__fill_1
XFILLER_13_305 VGND VGND VPWR VPWR sky130_fd_sc_hd__decap_12
XFILLER_13_349 VGND VGND VPWR VPWR sky130_fd_sc_hd__decap_12
XFILLER_15_55 VGND VGND VPWR VPWR sky130_fd_sc_hd__fill_1
XFILLER_25_154 VGND VGND VPWR VPWR sky130_fd_sc_hd__decap_4
XFILLER_21_393 VGND VGND VPWR VPWR sky130_fd_sc_hd__decap_12
XFILLER_0_253 VGND VGND VPWR VPWR sky130_fd_sc_hd__decap_12
XFILLER_63_249 VGND VGND VPWR VPWR sky130_fd_sc_hd__decap_12
XFILLER_63_205 VGND VGND VPWR VPWR sky130_fd_sc_hd__decap_12
XFILLER_0_297 VGND VGND VPWR VPWR sky130_fd_sc_hd__decap_8
XFILLER_16_121 VGND VGND VPWR VPWR sky130_fd_sc_hd__decap_12
XFILLER_31_157 VGND VGND VPWR VPWR sky130_fd_sc_hd__decap_4
XFILLER_31_113 VGND VGND VPWR VPWR sky130_fd_sc_hd__decap_12
XFILLER_16_165 VGND VGND VPWR VPWR sky130_fd_sc_hd__decap_12
XTAP_179 VGND VPWR sky130_fd_sc_hd__tapvpwrvgnd_1
XTAP_168 VGND VPWR sky130_fd_sc_hd__tapvpwrvgnd_1
XTAP_157 VGND VPWR sky130_fd_sc_hd__tapvpwrvgnd_1
XTAP_135 VGND VPWR sky130_fd_sc_hd__tapvpwrvgnd_1
XTAP_146 VGND VPWR sky130_fd_sc_hd__tapvpwrvgnd_1
XFILLER_39_279 VGND VGND VPWR VPWR sky130_fd_sc_hd__fill_1
XFILLER_45_249 VGND VGND VPWR VPWR sky130_fd_sc_hd__decap_12
XFILLER_45_205 VGND VGND VPWR VPWR sky130_fd_sc_hd__decap_12
XFILLER_53_293 VGND VGND VPWR VPWR sky130_fd_sc_hd__decap_12
XFILLER_42_53 VGND VGND VPWR VPWR sky130_fd_sc_hd__decap_12
XFILLER_13_113 VGND VGND VPWR VPWR sky130_fd_sc_hd__decap_12
X_292_ _304_/CLK _292_/D _191_/X VGND VGND VPWR VPWR _292_/Q sky130_fd_sc_hd__dfrtp_4
XFILLER_26_65 VGND VGND VPWR VPWR sky130_fd_sc_hd__decap_12
XFILLER_42_97 VGND VGND VPWR VPWR sky130_fd_sc_hd__decap_12
XFILLER_3_69 VGND VGND VPWR VPWR sky130_fd_sc_hd__decap_12
XFILLER_27_238 VGND VGND VPWR VPWR sky130_fd_sc_hd__decap_4
XFILLER_35_293 VGND VGND VPWR VPWR sky130_fd_sc_hd__decap_12
XFILLER_6_109 VGND VGND VPWR VPWR sky130_fd_sc_hd__decap_12
XFILLER_58_363 VGND VGND VPWR VPWR sky130_fd_sc_hd__fill_1
X_275_ _275_/A VGND VGND VPWR VPWR _275_/X sky130_fd_sc_hd__clkbuf_1
XFILLER_64_333 VGND VGND VPWR VPWR sky130_fd_sc_hd__decap_3
XFILLER_49_385 VGND VGND VPWR VPWR sky130_fd_sc_hd__decap_6
XFILLER_64_377 VGND VGND VPWR VPWR sky130_fd_sc_hd__decap_12
XFILLER_17_293 VGND VGND VPWR VPWR sky130_fd_sc_hd__decap_12
XFILLER_59_149 VGND VGND VPWR VPWR sky130_fd_sc_hd__decap_12
XFILLER_59_105 VGND VGND VPWR VPWR sky130_fd_sc_hd__decap_6
XFILLER_23_55 VGND VGND VPWR VPWR sky130_fd_sc_hd__fill_1
XFILLER_3_3 VGND VGND VPWR VPWR sky130_fd_sc_hd__decap_12
XFILLER_48_85 VGND VGND VPWR VPWR sky130_fd_sc_hd__decap_12
XFILLER_48_41 VGND VGND VPWR VPWR sky130_fd_sc_hd__decap_12
XFILLER_46_333 VGND VGND VPWR VPWR sky130_fd_sc_hd__decap_12
XFILLER_2_189 VGND VGND VPWR VPWR sky130_fd_sc_hd__decap_6
XFILLER_46_377 VGND VGND VPWR VPWR sky130_fd_sc_hd__decap_12
X_258_ _231_/X _250_/Y _257_/X _287_/Q _234_/X VGND VGND VPWR VPWR _287_/D sky130_fd_sc_hd__a32o_1
X_189_ _293_/Q _156_/A input3/X _283_/S VGND VGND VPWR VPWR _293_/D sky130_fd_sc_hd__a22o_1
XFILLER_9_57 VGND VGND VPWR VPWR sky130_fd_sc_hd__decap_12
XFILLER_36_3 VGND VGND VPWR VPWR sky130_fd_sc_hd__decap_12
XFILLER_64_141 VGND VGND VPWR VPWR sky130_fd_sc_hd__decap_12
XFILLER_49_193 VGND VGND VPWR VPWR sky130_fd_sc_hd__decap_12
XFILLER_20_200 VGND VGND VPWR VPWR sky130_fd_sc_hd__decap_4
XFILLER_20_277 VGND VGND VPWR VPWR sky130_fd_sc_hd__decap_12
XFILLER_28_333 VGND VGND VPWR VPWR sky130_fd_sc_hd__decap_12
XFILLER_28_377 VGND VGND VPWR VPWR sky130_fd_sc_hd__decap_12
XFILLER_18_77 VGND VGND VPWR VPWR sky130_fd_sc_hd__decap_6
XFILLER_51_391 VGND VGND VPWR VPWR sky130_fd_sc_hd__fill_1
XFILLER_50_53 VGND VGND VPWR VPWR sky130_fd_sc_hd__decap_12
XFILLER_34_65 VGND VGND VPWR VPWR sky130_fd_sc_hd__decap_12
XFILLER_7_237 VGND VGND VPWR VPWR sky130_fd_sc_hd__decap_12
XFILLER_59_51 VGND VGND VPWR VPWR sky130_fd_sc_hd__decap_4
XTAP_509 VGND VPWR sky130_fd_sc_hd__tapvpwrvgnd_1
XFILLER_50_97 VGND VGND VPWR VPWR sky130_fd_sc_hd__decap_12
XFILLER_46_141 VGND VGND VPWR VPWR sky130_fd_sc_hd__decap_12
XFILLER_34_303 VGND VGND VPWR VPWR sky130_fd_sc_hd__decap_4
XFILLER_61_111 VGND VGND VPWR VPWR sky130_fd_sc_hd__fill_1
XFILLER_52_177 VGND VGND VPWR VPWR sky130_fd_sc_hd__decap_12
XFILLER_52_133 VGND VGND VPWR VPWR sky130_fd_sc_hd__decap_6
XFILLER_33_391 VGND VGND VPWR VPWR sky130_fd_sc_hd__fill_1
XFILLER_28_152 VGND VGND VPWR VPWR sky130_fd_sc_hd__decap_4
XFILLER_28_141 VGND VGND VPWR VPWR sky130_fd_sc_hd__decap_8
XFILLER_43_111 VGND VGND VPWR VPWR sky130_fd_sc_hd__fill_1
XFILLER_31_317 VGND VGND VPWR VPWR sky130_fd_sc_hd__decap_12
XTAP_339 VGND VPWR sky130_fd_sc_hd__tapvpwrvgnd_1
XFILLER_3_273 VGND VGND VPWR VPWR sky130_fd_sc_hd__decap_6
XTAP_306 VGND VPWR sky130_fd_sc_hd__tapvpwrvgnd_1
XTAP_317 VGND VPWR sky130_fd_sc_hd__tapvpwrvgnd_1
XTAP_328 VGND VPWR sky130_fd_sc_hd__tapvpwrvgnd_1
XFILLER_34_133 VGND VGND VPWR VPWR sky130_fd_sc_hd__decap_6
XFILLER_15_391 VGND VGND VPWR VPWR sky130_fd_sc_hd__fill_1
XFILLER_57_225 VGND VGND VPWR VPWR sky130_fd_sc_hd__decap_12
XFILLER_13_317 VGND VGND VPWR VPWR sky130_fd_sc_hd__decap_12
XFILLER_25_111 VGND VGND VPWR VPWR sky130_fd_sc_hd__fill_1
XFILLER_25_188 VGND VGND VPWR VPWR sky130_fd_sc_hd__decap_8
XFILLER_31_55 VGND VGND VPWR VPWR sky130_fd_sc_hd__fill_1
XFILLER_21_361 VGND VGND VPWR VPWR sky130_fd_sc_hd__decap_12
Xoutput11 _285_/Q VGND VGND VPWR VPWR product[0] sky130_fd_sc_hd__buf_2
XFILLER_0_265 VGND VGND VPWR VPWR sky130_fd_sc_hd__decap_12
XFILLER_63_217 VGND VGND VPWR VPWR sky130_fd_sc_hd__decap_6
XFILLER_56_85 VGND VGND VPWR VPWR sky130_fd_sc_hd__decap_12
XFILLER_56_41 VGND VGND VPWR VPWR sky130_fd_sc_hd__decap_12
XFILLER_16_133 VGND VGND VPWR VPWR sky130_fd_sc_hd__decap_6
XFILLER_31_169 VGND VGND VPWR VPWR sky130_fd_sc_hd__decap_3
XFILLER_31_125 VGND VGND VPWR VPWR sky130_fd_sc_hd__decap_12
XFILLER_8_321 VGND VGND VPWR VPWR sky130_fd_sc_hd__decap_12
XFILLER_16_177 VGND VGND VPWR VPWR sky130_fd_sc_hd__decap_12
XFILLER_8_365 VGND VGND VPWR VPWR sky130_fd_sc_hd__decap_12
XFILLER_39_225 VGND VGND VPWR VPWR sky130_fd_sc_hd__decap_12
XTAP_169 VGND VPWR sky130_fd_sc_hd__tapvpwrvgnd_1
XTAP_158 VGND VPWR sky130_fd_sc_hd__tapvpwrvgnd_1
XTAP_136 VGND VPWR sky130_fd_sc_hd__tapvpwrvgnd_1
XTAP_147 VGND VPWR sky130_fd_sc_hd__tapvpwrvgnd_1
XFILLER_50_401 VGND VGND VPWR VPWR sky130_fd_sc_hd__decap_6
XFILLER_10_309 VGND VGND VPWR VPWR sky130_fd_sc_hd__decap_12
XFILLER_22_169 VGND VGND VPWR VPWR sky130_fd_sc_hd__fill_1
XFILLER_60_209 VGND VGND VPWR VPWR sky130_fd_sc_hd__decap_12
XFILLER_45_217 VGND VGND VPWR VPWR sky130_fd_sc_hd__decap_6
XFILLER_53_261 VGND VGND VPWR VPWR sky130_fd_sc_hd__decap_12
XFILLER_42_65 VGND VGND VPWR VPWR sky130_fd_sc_hd__decap_12
XFILLER_13_125 VGND VGND VPWR VPWR sky130_fd_sc_hd__decap_12
XFILLER_13_169 VGND VGND VPWR VPWR sky130_fd_sc_hd__decap_12
X_291_ _304_/CLK _291_/D _230_/X VGND VGND VPWR VPWR _291_/Q sky130_fd_sc_hd__dfrtp_4
XFILLER_26_77 VGND VGND VPWR VPWR sky130_fd_sc_hd__decap_6
XFILLER_5_335 VGND VGND VPWR VPWR sky130_fd_sc_hd__fill_1
XFILLER_3_15 VGND VGND VPWR VPWR sky130_fd_sc_hd__decap_12
XFILLER_32_401 VGND VGND VPWR VPWR sky130_fd_sc_hd__decap_6
XFILLER_8_195 VGND VGND VPWR VPWR sky130_fd_sc_hd__fill_1
XFILLER_42_209 VGND VGND VPWR VPWR sky130_fd_sc_hd__decap_12
XFILLER_27_228 VGND VGND VPWR VPWR sky130_fd_sc_hd__decap_4
XFILLER_50_253 VGND VGND VPWR VPWR sky130_fd_sc_hd__decap_12
XFILLER_35_261 VGND VGND VPWR VPWR sky130_fd_sc_hd__decap_6
XFILLER_35_250 VGND VGND VPWR VPWR sky130_fd_sc_hd__decap_4
XFILLER_10_139 VGND VGND VPWR VPWR sky130_fd_sc_hd__fill_1
XFILLER_14_401 VGND VGND VPWR VPWR sky130_fd_sc_hd__decap_6
X_274_ _274_/A VGND VGND VPWR VPWR _275_/A sky130_fd_sc_hd__clkbuf_1
XFILLER_1_393 VGND VGND VPWR VPWR sky130_fd_sc_hd__decap_12
XFILLER_64_389 VGND VGND VPWR VPWR sky130_fd_sc_hd__decap_3
XFILLER_32_264 VGND VGND VPWR VPWR sky130_fd_sc_hd__decap_4
XFILLER_17_261 VGND VGND VPWR VPWR sky130_fd_sc_hd__decap_12
XFILLER_23_220 VGND VGND VPWR VPWR sky130_fd_sc_hd__decap_4
XFILLER_48_97 VGND VGND VPWR VPWR sky130_fd_sc_hd__decap_12
XFILLER_48_53 VGND VGND VPWR VPWR sky130_fd_sc_hd__decap_12
XFILLER_46_345 VGND VGND VPWR VPWR sky130_fd_sc_hd__decap_12
XFILLER_46_301 VGND VGND VPWR VPWR sky130_fd_sc_hd__decap_6
XFILLER_0_27 VGND VGND VPWR VPWR sky130_fd_sc_hd__fill_1
XFILLER_64_85 VGND VGND VPWR VPWR sky130_fd_sc_hd__decap_12
XFILLER_64_41 VGND VGND VPWR VPWR sky130_fd_sc_hd__decap_12
XFILLER_61_337 VGND VGND VPWR VPWR sky130_fd_sc_hd__decap_12
XFILLER_46_389 VGND VGND VPWR VPWR sky130_fd_sc_hd__decap_12
XFILLER_9_69 VGND VGND VPWR VPWR sky130_fd_sc_hd__decap_12
XFILLER_14_253 VGND VGND VPWR VPWR sky130_fd_sc_hd__decap_12
X_257_ _257_/A _257_/B VGND VGND VPWR VPWR _257_/X sky130_fd_sc_hd__or2_1
X_188_ _188_/A VGND VGND VPWR VPWR _188_/X sky130_fd_sc_hd__clkbuf_1
XFILLER_56_109 VGND VGND VPWR VPWR sky130_fd_sc_hd__decap_12
XFILLER_29_3 VGND VGND VPWR VPWR sky130_fd_sc_hd__decap_12
XFILLER_64_197 VGND VGND VPWR VPWR sky130_fd_sc_hd__decap_6
XFILLER_64_153 VGND VGND VPWR VPWR sky130_fd_sc_hd__decap_12
XFILLER_49_161 VGND VGND VPWR VPWR sky130_fd_sc_hd__decap_6
XFILLER_20_289 VGND VGND VPWR VPWR sky130_fd_sc_hd__decap_12
XFILLER_28_345 VGND VGND VPWR VPWR sky130_fd_sc_hd__decap_12
XFILLER_43_337 VGND VGND VPWR VPWR sky130_fd_sc_hd__decap_12
XFILLER_34_77 VGND VGND VPWR VPWR sky130_fd_sc_hd__decap_6
XFILLER_28_389 VGND VGND VPWR VPWR sky130_fd_sc_hd__decap_12
XFILLER_11_223 VGND VGND VPWR VPWR sky130_fd_sc_hd__fill_1
XFILLER_50_65 VGND VGND VPWR VPWR sky130_fd_sc_hd__decap_12
XFILLER_7_205 VGND VGND VPWR VPWR sky130_fd_sc_hd__decap_12
XFILLER_7_249 VGND VGND VPWR VPWR sky130_fd_sc_hd__decap_12
XFILLER_38_109 VGND VGND VPWR VPWR sky130_fd_sc_hd__decap_12
XFILLER_46_197 VGND VGND VPWR VPWR sky130_fd_sc_hd__decap_12
XFILLER_46_153 VGND VGND VPWR VPWR sky130_fd_sc_hd__decap_12
XFILLER_61_167 VGND VGND VPWR VPWR sky130_fd_sc_hd__fill_1
XFILLER_52_189 VGND VGND VPWR VPWR sky130_fd_sc_hd__decap_6
XFILLER_40_307 VGND VGND VPWR VPWR sky130_fd_sc_hd__fill_1
XFILLER_37_197 VGND VGND VPWR VPWR sky130_fd_sc_hd__fill_1
XFILLER_37_164 VGND VGND VPWR VPWR sky130_fd_sc_hd__decap_4
XFILLER_37_153 VGND VGND VPWR VPWR sky130_fd_sc_hd__decap_4
XFILLER_1_81 VGND VGND VPWR VPWR sky130_fd_sc_hd__decap_12
XFILLER_25_337 VGND VGND VPWR VPWR sky130_fd_sc_hd__decap_12
XFILLER_29_55 VGND VGND VPWR VPWR sky130_fd_sc_hd__fill_1
XFILLER_28_197 VGND VGND VPWR VPWR sky130_fd_sc_hd__decap_4
XFILLER_43_167 VGND VGND VPWR VPWR sky130_fd_sc_hd__fill_1
XFILLER_31_329 VGND VGND VPWR VPWR sky130_fd_sc_hd__decap_6
XFILLER_6_15 VGND VGND VPWR VPWR sky130_fd_sc_hd__decap_12
XTAP_307 VGND VPWR sky130_fd_sc_hd__tapvpwrvgnd_1
XTAP_318 VGND VPWR sky130_fd_sc_hd__tapvpwrvgnd_1
XTAP_329 VGND VPWR sky130_fd_sc_hd__tapvpwrvgnd_1
XFILLER_22_307 VGND VGND VPWR VPWR sky130_fd_sc_hd__fill_1
XFILLER_57_237 VGND VGND VPWR VPWR sky130_fd_sc_hd__decap_12
XFILLER_13_329 VGND VGND VPWR VPWR sky130_fd_sc_hd__decap_6
XFILLER_15_57 VGND VGND VPWR VPWR sky130_fd_sc_hd__decap_12
XFILLER_21_373 VGND VGND VPWR VPWR sky130_fd_sc_hd__decap_12
XFILLER_25_167 VGND VGND VPWR VPWR sky130_fd_sc_hd__fill_1
Xoutput12 _286_/Q VGND VGND VPWR VPWR product[1] sky130_fd_sc_hd__buf_2
XFILLER_0_211 VGND VGND VPWR VPWR sky130_fd_sc_hd__decap_12
XFILLER_0_277 VGND VGND VPWR VPWR sky130_fd_sc_hd__decap_3
XFILLER_56_97 VGND VGND VPWR VPWR sky130_fd_sc_hd__decap_12
XFILLER_56_53 VGND VGND VPWR VPWR sky130_fd_sc_hd__decap_12
XFILLER_16_189 VGND VGND VPWR VPWR sky130_fd_sc_hd__decap_6
XFILLER_31_137 VGND VGND VPWR VPWR sky130_fd_sc_hd__decap_3
XFILLER_8_333 VGND VGND VPWR VPWR sky130_fd_sc_hd__decap_12
XFILLER_8_377 VGND VGND VPWR VPWR sky130_fd_sc_hd__decap_12
XTAP_137 VGND VPWR sky130_fd_sc_hd__tapvpwrvgnd_1
XTAP_148 VGND VPWR sky130_fd_sc_hd__tapvpwrvgnd_1
XFILLER_47_281 VGND VGND VPWR VPWR sky130_fd_sc_hd__decap_12
XFILLER_39_237 VGND VGND VPWR VPWR sky130_fd_sc_hd__decap_12
XTAP_159 VGND VPWR sky130_fd_sc_hd__tapvpwrvgnd_1
XFILLER_11_3 VGND VGND VPWR VPWR sky130_fd_sc_hd__decap_12
XFILLER_62_251 VGND VGND VPWR VPWR sky130_fd_sc_hd__fill_1
XFILLER_30_192 VGND VGND VPWR VPWR sky130_fd_sc_hd__decap_4
XFILLER_30_170 VGND VGND VPWR VPWR sky130_fd_sc_hd__decap_4
XFILLER_53_273 VGND VGND VPWR VPWR sky130_fd_sc_hd__decap_6
XFILLER_42_77 VGND VGND VPWR VPWR sky130_fd_sc_hd__decap_6
XFILLER_13_137 VGND VGND VPWR VPWR sky130_fd_sc_hd__decap_12
XFILLER_21_192 VGND VGND VPWR VPWR sky130_fd_sc_hd__decap_4
X_290_ _295_/CLK _290_/D _237_/X VGND VGND VPWR VPWR _290_/Q sky130_fd_sc_hd__dfrtp_4
XFILLER_3_27 VGND VGND VPWR VPWR sky130_fd_sc_hd__decap_12
XFILLER_29_281 VGND VGND VPWR VPWR sky130_fd_sc_hd__decap_12
XFILLER_44_251 VGND VGND VPWR VPWR sky130_fd_sc_hd__fill_1
XFILLER_59_3 VGND VGND VPWR VPWR sky130_fd_sc_hd__decap_12
XFILLER_8_141 VGND VGND VPWR VPWR sky130_fd_sc_hd__decap_12
XFILLER_27_218 VGND VGND VPWR VPWR sky130_fd_sc_hd__decap_6
XFILLER_50_265 VGND VGND VPWR VPWR sky130_fd_sc_hd__decap_12
XFILLER_50_221 VGND VGND VPWR VPWR sky130_fd_sc_hd__decap_12
XFILLER_58_365 VGND VGND VPWR VPWR sky130_fd_sc_hd__decap_12
XFILLER_58_321 VGND VGND VPWR VPWR sky130_fd_sc_hd__decap_12
XTAP_490 VGND VPWR sky130_fd_sc_hd__tapvpwrvgnd_1
XFILLER_37_55 VGND VGND VPWR VPWR sky130_fd_sc_hd__fill_1
XFILLER_26_251 VGND VGND VPWR VPWR sky130_fd_sc_hd__fill_1
X_273_ _273_/A VGND VGND VPWR VPWR _273_/X sky130_fd_sc_hd__clkbuf_1
XFILLER_5_111 VGND VGND VPWR VPWR sky130_fd_sc_hd__fill_1
XFILLER_1_361 VGND VGND VPWR VPWR sky130_fd_sc_hd__decap_12
XFILLER_17_273 VGND VGND VPWR VPWR sky130_fd_sc_hd__decap_6
XFILLER_55_335 VGND VGND VPWR VPWR sky130_fd_sc_hd__fill_1
XFILLER_11_405 VGND VGND VPWR VPWR sky130_fd_sc_hd__fill_2
XFILLER_23_210 VGND VGND VPWR VPWR sky130_fd_sc_hd__decap_6
XFILLER_23_232 VGND VGND VPWR VPWR sky130_fd_sc_hd__decap_8
XFILLER_23_57 VGND VGND VPWR VPWR sky130_fd_sc_hd__decap_12
XFILLER_64_53 VGND VGND VPWR VPWR sky130_fd_sc_hd__decap_3
XFILLER_61_305 VGND VGND VPWR VPWR sky130_fd_sc_hd__decap_12
XFILLER_58_195 VGND VGND VPWR VPWR sky130_fd_sc_hd__fill_1